42583265
  -OEChem-07082511212D

 56 60  0     1  0  0  0  0  0999 V2000
   11.8756   -1.9927    0.0000 Cl  0  0  0  0  0  0  0  0  0  0  0  0
    6.3450   -1.1610    0.0000 S   0  0  0  0  0  0  0  0  0  0  0  0
   10.5374   -3.4790    0.0000 F   0  0  0  0  0  0  0  0  0  0  0  0
    8.9412    0.2224    0.0000 O   0  0  0  0  0  0  0  0  0  0  0  0
    3.6493    0.3393    0.0000 O   0  0  0  0  0  0  0  0  0  0  0  0
    8.2418   -2.9211    0.0000 O   0  0  0  0  0  0  0  0  0  0  0  0
    7.6540    0.9656    0.0000 N   0  0  0  0  0  0  0  0  0  0  0  0
    7.9630   -1.1610    0.0000 N   0  0  0  0  0  0  0  0  0  0  0  0
    8.0347    1.8985    0.0000 C   0  0  0  0  0  0  0  0  0  0  0  0
    7.4431    2.7141    0.0000 C   0  0  0  0  0  0  0  0  0  0  0  0
    7.1540   -0.5733    0.0000 C   0  0  1  0  0  0  0  0  0  0  0  0
    6.6540    0.9656    0.0000 C   0  0  0  0  0  0  0  0  0  0  0  0
    6.4382    2.6420    0.0000 C   0  0  1  0  0  0  0  0  0  0  0  0
    6.3450    0.0145    0.0000 C   0  0  0  0  0  0  0  0  0  0  0  0
    5.9691    1.7503    0.0000 C   0  0  0  0  0  0  0  0  0  0  0  0
    7.9630    0.0145    0.0000 C   0  0  0  0  0  0  0  0  0  0  0  0
    8.8346    2.4986    0.0000 C   0  0  0  0  0  0  0  0  0  0  0  0
    8.9544    1.5058    0.0000 C   0  0  0  0  0  0  0  0  0  0  0  0
    5.8909    3.4790    0.0000 C   0  0  0  0  0  0  0  0  0  0  0  0
    5.3296   -0.2177    0.0000 C   0  0  0  0  0  0  0  0  0  0  0  0
    4.9486    1.5416    0.0000 C   0  0  0  0  0  0  0  0  0  0  0  0
    4.6267    0.5510    0.0000 C   0  0  0  0  0  0  0  0  0  0  0  0
    6.6540   -2.1121    0.0000 C   0  0  0  0  0  0  0  0  0  0  0  0
    7.6540   -2.1121    0.0000 C   0  0  0  0  0  0  0  0  0  0  0  0
    8.9412   -1.3690    0.0000 C   0  0  0  0  0  0  0  0  0  0  0  0
    9.2502   -2.3200    0.0000 C   0  0  0  0  0  0  0  0  0  0  0  0
    9.6103   -0.6258    0.0000 C   0  0  0  0  0  0  0  0  0  0  0  0
    2.9773    1.0798    0.0000 C   0  0  0  0  0  0  0  0  0  0  0  0
   10.2284   -2.5279    0.0000 C   0  0  0  0  0  0  0  0  0  0  0  0
   10.5885   -0.8337    0.0000 C   0  0  0  0  0  0  0  0  0  0  0  0
   10.8975   -1.7848    0.0000 C   0  0  0  0  0  0  0  0  0  0  0  0
    2.0000    0.8682    0.0000 C   0  0  0  0  0  0  0  0  0  0  0  0
    8.0035    2.9794    0.0000 H   0  0  0  0  0  0  0  0  0  0  0  0
    7.2856    3.3137    0.0000 H   0  0  0  0  0  0  0  0  0  0  0  0
    5.8188    2.6126    0.0000 H   0  0  0  0  0  0  0  0  0  0  0  0
    9.2067    2.0026    0.0000 H   0  0  0  0  0  0  0  0  0  0  0  0
    9.3306    2.8706    0.0000 H   0  0  0  0  0  0  0  0  0  0  0  0
    8.4625    2.9945    0.0000 H   0  0  0  0  0  0  0  0  0  0  0  0
    8.7109    0.9356    0.0000 H   0  0  0  0  0  0  0  0  0  0  0  0
    9.5245    1.2623    0.0000 H   0  0  0  0  0  0  0  0  0  0  0  0
    9.1978    2.0760    0.0000 H   0  0  0  0  0  0  0  0  0  0  0  0
    6.4099    3.8183    0.0000 H   0  0  0  0  0  0  0  0  0  0  0  0
    5.5517    3.9979    0.0000 H   0  0  0  0  0  0  0  0  0  0  0  0
    5.3720    3.1397    0.0000 H   0  0  0  0  0  0  0  0  0  0  0  0
    5.1448   -0.8096    0.0000 H   0  0  0  0  0  0  0  0  0  0  0  0
    4.5355    2.0040    0.0000 H   0  0  0  0  0  0  0  0  0  0  0  0
    6.0476   -2.2410    0.0000 H   0  0  0  0  0  0  0  0  0  0  0  0
    6.7188   -2.7287    0.0000 H   0  0  0  0  0  0  0  0  0  0  0  0
    8.8354   -2.7808    0.0000 H   0  0  0  0  0  0  0  0  0  0  0  0
    9.4187   -0.0362    0.0000 H   0  0  0  0  0  0  0  0  0  0  0  0
    3.5019    1.4104    0.0000 H   0  0  0  0  0  0  0  0  0  0  0  0
    2.7429    1.6538    0.0000 H   0  0  0  0  0  0  0  0  0  0  0  0
   11.0033   -0.3730    0.0000 H   0  0  0  0  0  0  0  0  0  0  0  0
    1.8688    1.4741    0.0000 H   0  0  0  0  0  0  0  0  0  0  0  0
    1.3940    0.7369    0.0000 H   0  0  0  0  0  0  0  0  0  0  0  0
    2.1312    0.2622    0.0000 H   0  0  0  0  0  0  0  0  0  0  0  0
  1 31  1  0  0  0  0
  2 11  1  0  0  0  0
  2 23  1  0  0  0  0
  3 29  1  0  0  0  0
  4 16  2  0  0  0  0
  5 22  1  0  0  0  0
  5 28  1  0  0  0  0
  6 24  2  0  0  0  0
  7  9  1  0  0  0  0
  7 12  1  0  0  0  0
  7 16  1  0  0  0  0
 11  8  1  6  0  0  0
  8 24  1  0  0  0  0
  8 25  1  0  0  0  0
  9 10  1  0  0  0  0
  9 17  1  0  0  0  0
  9 18  1  0  0  0  0
 10 13  1  0  0  0  0
 10 33  1  0  0  0  0
 10 34  1  0  0  0  0
 11 14  1  0  0  0  0
 11 16  1  0  0  0  0
 12 14  1  0  0  0  0
 12 15  2  0  0  0  0
 13 15  1  0  0  0  0
 13 19  1  1  0  0  0
 13 35  1  0  0  0  0
 14 20  2  0  0  0  0
 15 21  1  0  0  0  0
 17 36  1  0  0  0  0
 17 37  1  0  0  0  0
 17 38  1  0  0  0  0
 18 39  1  0  0  0  0
 18 40  1  0  0  0  0
 18 41  1  0  0  0  0
 19 42  1  0  0  0  0
 19 43  1  0  0  0  0
 19 44  1  0  0  0  0
 20 22  1  0  0  0  0
 20 45  1  0  0  0  0
 21 22  2  0  0  0  0
 21 46  1  0  0  0  0
 23 24  1  0  0  0  0
 23 47  1  0  0  0  0
 23 48  1  0  0  0  0
 25 26  2  0  0  0  0
 25 27  1  0  0  0  0
 26 29  1  0  0  0  0
 26 49  1  0  0  0  0
 27 30  2  0  0  0  0
 27 50  1  0  0  0  0
 28 32  1  0  0  0  0
 28 51  1  0  0  0  0
 28 52  1  0  0  0  0
 29 31  2  0  0  0  0
 30 31  1  0  0  0  0
 30 53  1  0  0  0  0
 32 54  1  0  0  0  0
 32 55  1  0  0  0  0
 32 56  1  0  0  0  0
M  END
> <PUBCHEM_COMPOUND_CID>
42583265

> <PUBCHEM_COMPOUND_CANONICALIZED>
1

> <PUBCHEM_CACTVS_COMPLEXITY>
799

> <PUBCHEM_CACTVS_HBOND_ACCEPTOR>
5

> <PUBCHEM_CACTVS_HBOND_DONOR>
0

> <PUBCHEM_CACTVS_ROTATABLE_BOND>
3

> <PUBCHEM_CACTVS_SUBSKEYS>
AAADceB7MQBEAAAAAAAAAAAAAAAAAWLAAAA8YIAAAAAAAFixQAAAHwYAAAAADY6l2CqyxoMABAiIAiVSUACCCABhJxAIiAGGbogMZjLl97uWOCjkxBHo6Ae83PLOgEBDAAACAAAAgIYAAAQAAAAAAAAAAA==

> <PUBCHEM_IUPAC_OPENEYE_NAME>
(3S,9S)-3'-(4-chloro-3-fluoro-phenyl)-6-ethoxy-9,11,11-trimethyl-spiro[1-azatricyclo[6.3.1.04,12]dodeca-4,6,8(12)-triene-3,2'-thiazolidine]-2,4'-dione

> <PUBCHEM_IUPAC_CAS_NAME>
(3S,9S)-3'-(4-chloro-3-fluorophenyl)-6-ethoxy-9,11,11-trimethylspiro[1-azatricyclo[6.3.1.04,12]dodeca-4,6,8(12)-triene-3,2'-thiazolidine]-2,4'-dione

> <PUBCHEM_IUPAC_NAME_MARKUP>
(2<I>S</I>,9&apos;<I>S</I>)-3-(4-chloro-3-fluorophenyl)-6&apos;-ethoxy-9&apos;,11&apos;,11&apos;-trimethylspiro[1,3-thiazolidine-2,3&apos;-1-azatricyclo[6.3.1.0<SUP>4,12</SUP>]dodeca-4,6,8(12)-triene]-2&apos;,4-dione

> <PUBCHEM_IUPAC_NAME>
(2S,9'S)-3-(4-chloro-3-fluorophenyl)-6'-ethoxy-9',11',11'-trimethylspiro[1,3-thiazolidine-2,3'-1-azatricyclo[6.3.1.04,12]dodeca-4,6,8(12)-triene]-2',4-dione

> <PUBCHEM_IUPAC_SYSTEMATIC_NAME>
(2S,9'S)-3-(4-chloranyl-3-fluoranyl-phenyl)-6'-ethoxy-9',11',11'-trimethyl-spiro[1,3-thiazolidine-2,3'-1-azatricyclo[6.3.1.04,12]dodeca-4,6,8(12)-triene]-2',4-dione

> <PUBCHEM_IUPAC_TRADITIONAL_NAME>
(3S,9S)-3'-(4-chloro-3-fluoro-phenyl)-6-ethoxy-9,11,11-trimethyl-spiro[1-azatricyclo[6.3.1.04,12]dodeca-4,6,8(12)-triene-3,2'-thiazolidine]-2,4'-quinone

> <PUBCHEM_IUPAC_INCHI>
InChI=1S/C24H24ClFN2O3S/c1-5-31-15-9-16-13(2)11-23(3,4)28-21(16)17(10-15)24(22(28)30)27(20(29)12-32-24)14-6-7-18(25)19(26)8-14/h6-10,13H,5,11-12H2,1-4H3/t13-,24-/m0/s1

> <PUBCHEM_IUPAC_INCHIKEY>
DRQDMXBXMIYYEV-RZFZLAGVSA-N

> <PUBCHEM_XLOGP3_AA>
4.9

> <PUBCHEM_EXACT_MASS>
474.1180197

> <PUBCHEM_MOLECULAR_FORMULA>
C24H24ClFN2O3S

> <PUBCHEM_MOLECULAR_WEIGHT>
475.0

> <PUBCHEM_CACTVS_TPSA>
75.2

> <PUBCHEM_MONOISOTOPIC_WEIGHT>
474.1180197

> <PUBCHEM_TOTAL_CHARGE>
0

> <PUBCHEM_HEAVY_ATOM_COUNT>
32

> <PUBCHEM_ATOM_DEF_STEREO_COUNT>
2

> <PUBCHEM_ATOM_UDEF_STEREO_COUNT>
0

> <PUBCHEM_BOND_DEF_STEREO_COUNT>
0

> <PUBCHEM_BOND_UDEF_STEREO_COUNT>
0

> <PUBCHEM_ISOTOPIC_ATOM_COUNT>
0

> <PUBCHEM_COMPONENT_COUNT>
1

> <PUBCHEM_CACTVS_TAUTO_COUNT>
-1

> <PUBCHEM_COORDINATE_TYPE>
1
5
255

> <PUBCHEM_BONDANNOTATIONS>
12  14  8
12  15  8
13  19  5
14  20  8
15  21  8
20  22  8
21  22  8
25  26  8
25  27  8
26  29  8
27  30  8
29  31  8
30  31  8
11  8  6

$$$$
164516813
  -OEChem-07082511212D

 56 60  0     0  0  0  0  0  0999 V2000
    5.4641   -1.8938    0.0000 S   0  0  0  0  0  0  0  0  0  0  0  0
   10.0218    0.8282    0.0000 S   0  0  0  0  0  0  0  0  0  0  0  0
    4.9641   -2.7598    0.0000 O   0  0  0  0  0  0  0  0  0  0  0  0
    5.9641   -1.0278    0.0000 O   0  0  0  0  0  0  0  0  0  0  0  0
   10.5920   -2.8938    0.0000 O   0  0  0  0  0  0  0  0  0  0  0  0
   14.8017    3.6711    0.0000 O   0  0  0  0  0  0  0  0  0  0  0  0
    4.5981   -1.3938    0.0000 N   0  0  0  0  0  0  0  0  0  0  0  0
    2.8660   -0.3938    0.0000 N   0  0  0  0  0  0  0  0  0  0  0  0
    9.0084   -3.6985    0.0000 N   0  0  0  0  0  0  0  0  0  0  0  0
    9.3191   -1.1385    0.0000 N   0  0  0  0  0  0  0  0  0  0  0  0
   10.2976   -0.9323    0.0000 N   0  0  0  0  0  0  0  0  0  0  0  0
   11.5598    0.3256    0.0000 N   0  0  0  0  0  0  0  0  0  0  0  0
    4.5981   -0.3938    0.0000 C   0  0  0  0  0  0  0  0  0  0  0  0
    3.7321   -1.8938    0.0000 C   0  0  0  0  0  0  0  0  0  0  0  0
    3.7321    0.1062    0.0000 C   0  0  0  0  0  0  0  0  0  0  0  0
    2.8660   -1.3938    0.0000 C   0  0  0  0  0  0  0  0  0  0  0  0
    6.3301   -2.3938    0.0000 C   0  0  0  0  0  0  0  0  0  0  0  0
    2.0000    0.1062    0.0000 C   0  0  0  0  0  0  0  0  0  0  0  0
    7.1962   -1.8938    0.0000 C   0  0  0  0  0  0  0  0  0  0  0  0
    8.0622   -2.3938    0.0000 C   0  0  0  0  0  0  0  0  0  0  0  0
    6.3301   -3.3938    0.0000 C   0  0  0  0  0  0  0  0  0  0  0  0
    8.0622   -3.3938    0.0000 C   0  0  0  0  0  0  0  0  0  0  0  0
    7.1962   -3.8938    0.0000 C   0  0  0  0  0  0  0  0  0  0  0  0
    9.0084   -2.0891    0.0000 C   0  0  0  0  0  0  0  0  0  0  0  0
    9.5920   -2.8938    0.0000 C   0  0  0  0  0  0  0  0  0  0  0  0
   10.6082    0.0182    0.0000 C   0  0  0  0  0  0  0  0  0  0  0  0
   11.5615    1.3256    0.0000 C   0  0  0  0  0  0  0  0  0  0  0  0
   12.3716    1.9120    0.0000 C   0  0  0  0  0  0  0  0  0  0  0  0
   10.6110    1.6362    0.0000 C   0  0  0  0  0  0  0  0  0  0  0  0
   13.2844    1.5037    0.0000 C   0  0  0  0  0  0  0  0  0  0  0  0
   12.2688    2.9067    0.0000 C   0  0  0  0  0  0  0  0  0  0  0  0
   14.0945    2.0900    0.0000 C   0  0  0  0  0  0  0  0  0  0  0  0
   13.0788    3.4931    0.0000 C   0  0  0  0  0  0  0  0  0  0  0  0
   13.9916    3.0847    0.0000 C   0  0  0  0  0  0  0  0  0  0  0  0
    5.2087   -0.5014    0.0000 H   0  0  0  0  0  0  0  0  0  0  0  0
    4.8101    0.1888    0.0000 H   0  0  0  0  0  0  0  0  0  0  0  0
    3.3335   -2.3687    0.0000 H   0  0  0  0  0  0  0  0  0  0  0  0
    4.1306   -2.3687    0.0000 H   0  0  0  0  0  0  0  0  0  0  0  0
    4.1306    0.5812    0.0000 H   0  0  0  0  0  0  0  0  0  0  0  0
    3.3335    0.5812    0.0000 H   0  0  0  0  0  0  0  0  0  0  0  0
    2.2554   -1.2861    0.0000 H   0  0  0  0  0  0  0  0  0  0  0  0
    2.6540   -1.9764    0.0000 H   0  0  0  0  0  0  0  0  0  0  0  0
    2.3100    0.6432    0.0000 H   0  0  0  0  0  0  0  0  0  0  0  0
    1.4631    0.4162    0.0000 H   0  0  0  0  0  0  0  0  0  0  0  0
    1.6900   -0.4307    0.0000 H   0  0  0  0  0  0  0  0  0  0  0  0
    7.1962   -1.2738    0.0000 H   0  0  0  0  0  0  0  0  0  0  0  0
    5.7932   -3.7038    0.0000 H   0  0  0  0  0  0  0  0  0  0  0  0
    7.1962   -4.5138    0.0000 H   0  0  0  0  0  0  0  0  0  0  0  0
    9.2010   -4.2878    0.0000 H   0  0  0  0  0  0  0  0  0  0  0  0
   10.9020   -3.4307    0.0000 H   0  0  0  0  0  0  0  0  0  0  0  0
   10.4205    2.2262    0.0000 H   0  0  0  0  0  0  0  0  0  0  0  0
   13.3482    0.8869    0.0000 H   0  0  0  0  0  0  0  0  0  0  0  0
   11.7028    3.1598    0.0000 H   0  0  0  0  0  0  0  0  0  0  0  0
   14.6604    1.8369    0.0000 H   0  0  0  0  0  0  0  0  0  0  0  0
   13.0151    4.1098    0.0000 H   0  0  0  0  0  0  0  0  0  0  0  0
   14.7379    4.2878    0.0000 H   0  0  0  0  0  0  0  0  0  0  0  0
  1  3  2  0  0  0  0
  1  4  2  0  0  0  0
  1  7  1  0  0  0  0
  1 17  1  0  0  0  0
  2 26  1  0  0  0  0
  2 29  1  0  0  0  0
  5 25  1  0  0  0  0
  5 50  1  0  0  0  0
  6 34  1  0  0  0  0
  6 56  1  0  0  0  0
  7 13  1  0  0  0  0
  7 14  1  0  0  0  0
  8 15  1  0  0  0  0
  8 16  1  0  0  0  0
  8 18  1  0  0  0  0
  9 22  1  0  0  0  0
  9 25  1  0  0  0  0
  9 49  1  0  0  0  0
 10 11  2  0  0  0  0
 10 24  1  0  0  0  0
 11 26  1  0  0  0  0
 12 26  2  0  0  0  0
 12 27  1  0  0  0  0
 13 15  1  0  0  0  0
 13 35  1  0  0  0  0
 13 36  1  0  0  0  0
 14 16  1  0  0  0  0
 14 37  1  0  0  0  0
 14 38  1  0  0  0  0
 15 39  1  0  0  0  0
 15 40  1  0  0  0  0
 16 41  1  0  0  0  0
 16 42  1  0  0  0  0
 17 19  2  0  0  0  0
 17 21  1  0  0  0  0
 18 43  1  0  0  0  0
 18 44  1  0  0  0  0
 18 45  1  0  0  0  0
 19 20  1  0  0  0  0
 19 46  1  0  0  0  0
 20 22  2  0  0  0  0
 20 24  1  0  0  0  0
 21 23  2  0  0  0  0
 21 47  1  0  0  0  0
 22 23  1  0  0  0  0
 23 48  1  0  0  0  0
 24 25  2  0  0  0  0
 27 28  1  0  0  0  0
 27 29  2  0  0  0  0
 28 30  2  0  0  0  0
 28 31  1  0  0  0  0
 29 51  1  0  0  0  0
 30 32  1  0  0  0  0
 30 52  1  0  0  0  0
 31 33  2  0  0  0  0
 31 53  1  0  0  0  0
 32 34  2  0  0  0  0
 32 54  1  0  0  0  0
 33 34  1  0  0  0  0
 33 55  1  0  0  0  0
M  END
> <PUBCHEM_COMPOUND_CID>
164516813

> <PUBCHEM_COMPOUND_CANONICALIZED>
1

> <PUBCHEM_CACTVS_COMPLEXITY>
826

> <PUBCHEM_CACTVS_HBOND_ACCEPTOR>
10

> <PUBCHEM_CACTVS_HBOND_DONOR>
3

> <PUBCHEM_CACTVS_ROTATABLE_BOND>
5

> <PUBCHEM_CACTVS_SUBSKEYS>
AAADceB7uABgAAAAAAAAAAAAAAAAAWLAAAA8YIAAAAAAAFgB/AAAHgQYSAAADAzF3gSz1/PJkgqmAyRiZHDC8LlhOjgImTw/fJ2KZuLy0dOUdAhk0BPI2Cew0KMOIAQAgAACAABACAEAAAQAAAAAAAAAAA==

> <PUBCHEM_IUPAC_OPENEYE_NAME>
3-[4-(4-hydroxyphenyl)thiazol-2-yl]azo-5-(4-methylpiperazin-1-yl)sulfonyl-1H-indol-2-ol

> <PUBCHEM_IUPAC_CAS_NAME>
3-[[4-(4-hydroxyphenyl)-2-thiazolyl]azo]-5-[(4-methyl-1-piperazinyl)sulfonyl]-1H-indol-2-ol

> <PUBCHEM_IUPAC_NAME_MARKUP>
3-[[4-(4-hydroxyphenyl)-1,3-thiazol-2-yl]diazenyl]-5-(4-methylpiperazin-1-yl)sulfonyl-1<I>H</I>-indol-2-ol

> <PUBCHEM_IUPAC_NAME>
3-[[4-(4-hydroxyphenyl)-1,3-thiazol-2-yl]diazenyl]-5-(4-methylpiperazin-1-yl)sulfonyl-1H-indol-2-ol

> <PUBCHEM_IUPAC_SYSTEMATIC_NAME>
3-[[4-(4-hydroxyphenyl)-1,3-thiazol-2-yl]diazenyl]-5-(4-methylpiperazin-1-yl)sulfonyl-1H-indol-2-ol

> <PUBCHEM_IUPAC_TRADITIONAL_NAME>
3-[4-(4-hydroxyphenyl)thiazol-2-yl]azo-5-(4-methylpiperazino)sulfonyl-1H-indol-2-ol

> <PUBCHEM_IUPAC_INCHI>
InChI=1S/C22H22N6O4S2/c1-27-8-10-28(11-9-27)34(31,32)16-6-7-18-17(12-16)20(21(30)23-18)25-26-22-24-19(13-33-22)14-2-4-15(29)5-3-14/h2-7,12-13,23,29-30H,8-11H2,1H3

> <PUBCHEM_IUPAC_INCHIKEY>
JDFPGLCTKJFMNB-UHFFFAOYSA-N

> <PUBCHEM_XLOGP3_AA>
3.4

> <PUBCHEM_EXACT_MASS>
498.11439555

> <PUBCHEM_MOLECULAR_FORMULA>
C22H22N6O4S2

> <PUBCHEM_MOLECULAR_WEIGHT>
498.6

> <PUBCHEM_CACTVS_TPSA>
171

> <PUBCHEM_MONOISOTOPIC_WEIGHT>
498.11439555

> <PUBCHEM_TOTAL_CHARGE>
0

> <PUBCHEM_HEAVY_ATOM_COUNT>
34

> <PUBCHEM_ATOM_DEF_STEREO_COUNT>
0

> <PUBCHEM_ATOM_UDEF_STEREO_COUNT>
0

> <PUBCHEM_BOND_DEF_STEREO_COUNT>
0

> <PUBCHEM_BOND_UDEF_STEREO_COUNT>
0

> <PUBCHEM_ISOTOPIC_ATOM_COUNT>
0

> <PUBCHEM_COMPONENT_COUNT>
1

> <PUBCHEM_CACTVS_TAUTO_COUNT>
-1

> <PUBCHEM_COORDINATE_TYPE>
1
5
255

> <PUBCHEM_BONDANNOTATIONS>
12  26  8
12  27  8
17  19  8
17  21  8
19  20  8
2  26  8
2  29  8
20  22  8
20  24  8
21  23  8
22  23  8
24  25  8
27  29  8
28  30  8
28  31  8
30  32  8
31  33  8
32  34  8
33  34  8
9  22  8
9  25  8

$$$$
165412710
  -OEChem-07082511212D

 47 50  0     0  0  0  0  0  0999 V2000
    7.4851   -1.8123    0.0000 S   0  0  0  0  0  0  0  0  0  0  0  0
    2.5000   -3.6057    0.0000 O   0  0  0  0  0  0  0  0  0  0  0  0
    7.1279    1.4920    0.0000 O   0  0  0  0  0  0  0  0  0  0  0  0
    3.5000   -1.8736    0.0000 N   0  0  0  0  0  0  0  0  0  0  0  0
    6.5388   -0.5076    0.0000 N   0  0  0  0  0  0  0  0  0  0  0  0
    5.5878   -1.8166    0.0000 N   0  0  0  0  0  0  0  0  0  0  0  0
    8.7742    0.9539    0.0000 N   0  0  0  0  0  0  0  0  0  0  0  0
    9.0849    1.9044    0.0000 N   0  0  0  0  0  0  0  0  0  0  0  0
    4.0000   -1.0076    0.0000 C   0  0  0  0  0  0  0  0  0  0  0  0
    4.0000   -2.7396    0.0000 C   0  0  0  0  0  0  0  0  0  0  0  0
    2.5000   -1.8736    0.0000 C   0  0  0  0  0  0  0  0  0  0  0  0
    5.0000   -1.0076    0.0000 C   0  0  0  0  0  0  0  0  0  0  0  0
    5.5878   -0.1986    0.0000 C   0  0  0  0  0  0  0  0  0  0  0  0
    3.5000   -3.6057    0.0000 C   0  0  0  0  0  0  0  0  0  0  0  0
    2.0000   -2.7396    0.0000 C   0  0  0  0  0  0  0  0  0  0  0  0
    6.5388   -1.5076    0.0000 C   0  0  0  0  0  0  0  0  0  0  0  0
    5.2788    0.7525    0.0000 C   0  0  0  0  0  0  0  0  0  0  0  0
    7.4851   -0.2029    0.0000 C   0  0  0  0  0  0  0  0  0  0  0  0
    8.0687   -1.0076    0.0000 C   0  0  0  0  0  0  0  0  0  0  0  0
    5.9479    1.4956    0.0000 C   0  0  0  0  0  0  0  0  0  0  0  0
    4.3006    0.9604    0.0000 C   0  0  0  0  0  0  0  0  0  0  0  0
    7.7957    0.7477    0.0000 C   0  0  0  0  0  0  0  0  0  0  0  0
    5.6389    2.4467    0.0000 C   0  0  0  0  0  0  0  0  0  0  0  0
    3.9916    1.9115    0.0000 C   0  0  0  0  0  0  0  0  0  0  0  0
    4.6607    2.6546    0.0000 C   0  0  0  0  0  0  0  0  0  0  0  0
    4.3517    3.6057    0.0000 C   0  0  0  0  0  0  0  0  0  0  0  0
    4.1077   -0.3970    0.0000 H   0  0  0  0  0  0  0  0  0  0  0  0
    3.4174   -0.7955    0.0000 H   0  0  0  0  0  0  0  0  0  0  0  0
    4.4750   -3.1382    0.0000 H   0  0  0  0  0  0  0  0  0  0  0  0
    4.4750   -2.3411    0.0000 H   0  0  0  0  0  0  0  0  0  0  0  0
    2.6077   -1.2630    0.0000 H   0  0  0  0  0  0  0  0  0  0  0  0
    1.9174   -1.6616    0.0000 H   0  0  0  0  0  0  0  0  0  0  0  0
    3.3923   -4.2162    0.0000 H   0  0  0  0  0  0  0  0  0  0  0  0
    4.0826   -3.8177    0.0000 H   0  0  0  0  0  0  0  0  0  0  0  0
    1.5251   -2.3411    0.0000 H   0  0  0  0  0  0  0  0  0  0  0  0
    1.5251   -3.1382    0.0000 H   0  0  0  0  0  0  0  0  0  0  0  0
    8.6887   -1.0076    0.0000 H   0  0  0  0  0  0  0  0  0  0  0  0
    6.5544    1.3667    0.0000 H   0  0  0  0  0  0  0  0  0  0  0  0
    3.8858    0.4997    0.0000 H   0  0  0  0  0  0  0  0  0  0  0  0
    6.0537    2.9074    0.0000 H   0  0  0  0  0  0  0  0  0  0  0  0
    3.3852    2.0404    0.0000 H   0  0  0  0  0  0  0  0  0  0  0  0
    4.9414    3.7973    0.0000 H   0  0  0  0  0  0  0  0  0  0  0  0
    4.1601    4.1953    0.0000 H   0  0  0  0  0  0  0  0  0  0  0  0
    3.7621    3.4141    0.0000 H   0  0  0  0  0  0  0  0  0  0  0  0
    9.1883    0.4924    0.0000 H   0  0  0  0  0  0  0  0  0  0  0  0
    9.6916    2.0323    0.0000 H   0  0  0  0  0  0  0  0  0  0  0  0
    8.6708    2.3659    0.0000 H   0  0  0  0  0  0  0  0  0  0  0  0
  1 16  1  0  0  0  0
  1 19  1  0  0  0  0
  2 14  1  0  0  0  0
  2 15  1  0  0  0  0
  3 22  2  0  0  0  0
  4  9  1  0  0  0  0
  4 10  1  0  0  0  0
  4 11  1  0  0  0  0
  5 13  1  0  0  0  0
  5 16  1  0  0  0  0
  5 18  1  0  0  0  0
  6 12  1  0  0  0  0
  6 16  2  0  0  0  0
  7  8  1  0  0  0  0
  7 22  1  0  0  0  0
  7 45  1  0  0  0  0
  8 46  1  0  0  0  0
  8 47  1  0  0  0  0
  9 12  1  0  0  0  0
  9 27  1  0  0  0  0
  9 28  1  0  0  0  0
 10 14  1  0  0  0  0
 10 29  1  0  0  0  0
 10 30  1  0  0  0  0
 11 15  1  0  0  0  0
 11 31  1  0  0  0  0
 11 32  1  0  0  0  0
 12 13  2  0  0  0  0
 13 17  1  0  0  0  0
 14 33  1  0  0  0  0
 14 34  1  0  0  0  0
 15 35  1  0  0  0  0
 15 36  1  0  0  0  0
 17 20  2  0  0  0  0
 17 21  1  0  0  0  0
 18 19  2  0  0  0  0
 18 22  1  0  0  0  0
 19 37  1  0  0  0  0
 20 23  1  0  0  0  0
 20 38  1  0  0  0  0
 21 24  2  0  0  0  0
 21 39  1  0  0  0  0
 23 25  2  0  0  0  0
 23 40  1  0  0  0  0
 24 25  1  0  0  0  0
 24 41  1  0  0  0  0
 25 26  1  0  0  0  0
 26 42  1  0  0  0  0
 26 43  1  0  0  0  0
 26 44  1  0  0  0  0
M  END
> <PUBCHEM_COMPOUND_CID>
165412710

> <PUBCHEM_COMPOUND_CANONICALIZED>
1

> <PUBCHEM_CACTVS_COMPLEXITY>
496

> <PUBCHEM_CACTVS_HBOND_ACCEPTOR>
6

> <PUBCHEM_CACTVS_HBOND_DONOR>
2

> <PUBCHEM_CACTVS_ROTATABLE_BOND>
4

> <PUBCHEM_CACTVS_SUBSKEYS>
AAADceB7sABAAAAAAAAAAAAAAAAAAWLAAAA8QAAAAAAWAAAB8AAAHgQYAAAADAjl3gazkZduHAisAyVydACC8K1nGrobuDW4dNiKaOLg2TGXIAhogALYyKcQgMAOQAAAAAAAAACAAAAAAAAAAAAAAAAAAA==

> <PUBCHEM_IUPAC_OPENEYE_NAME>
6-(morpholinomethyl)-5-(p-tolyl)imidazo[2,1-b]thiazole-3-carbohydrazide

> <PUBCHEM_IUPAC_CAS_NAME>
5-(4-methylphenyl)-6-(4-morpholinylmethyl)-3-imidazo[2,1-b]thiazolecarbohydrazide

> <PUBCHEM_IUPAC_NAME_MARKUP>
5-(4-methylphenyl)-6-(morpholin-4-ylmethyl)imidazo[2,1-b][1,3]thiazole-3-carbohydrazide

> <PUBCHEM_IUPAC_NAME>
5-(4-methylphenyl)-6-(morpholin-4-ylmethyl)imidazo[2,1-b][1,3]thiazole-3-carbohydrazide

> <PUBCHEM_IUPAC_SYSTEMATIC_NAME>
5-(4-methylphenyl)-6-(morpholin-4-ylmethyl)imidazo[2,1-b][1,3]thiazole-3-carbohydrazide

> <PUBCHEM_IUPAC_TRADITIONAL_NAME>
6-(morpholinomethyl)-5-(p-tolyl)imidazo[2,1-b]thiazole-3-carbohydrazide

> <PUBCHEM_IUPAC_INCHI>
InChI=1S/C18H21N5O2S/c1-12-2-4-13(5-3-12)16-14(10-22-6-8-25-9-7-22)20-18-23(16)15(11-26-18)17(24)21-19/h2-5,11H,6-10,19H2,1H3,(H,21,24)

> <PUBCHEM_IUPAC_INCHIKEY>
MSIRVCGEZTUEOG-UHFFFAOYSA-N

> <PUBCHEM_XLOGP3_AA>
2.3

> <PUBCHEM_EXACT_MASS>
371.14159610

> <PUBCHEM_MOLECULAR_FORMULA>
C18H21N5O2S

> <PUBCHEM_MOLECULAR_WEIGHT>
371.5

> <PUBCHEM_CACTVS_TPSA>
113

> <PUBCHEM_MONOISOTOPIC_WEIGHT>
371.14159610

> <PUBCHEM_TOTAL_CHARGE>
0

> <PUBCHEM_HEAVY_ATOM_COUNT>
26

> <PUBCHEM_ATOM_DEF_STEREO_COUNT>
0

> <PUBCHEM_ATOM_UDEF_STEREO_COUNT>
0

> <PUBCHEM_BOND_DEF_STEREO_COUNT>
0

> <PUBCHEM_BOND_UDEF_STEREO_COUNT>
0

> <PUBCHEM_ISOTOPIC_ATOM_COUNT>
0

> <PUBCHEM_COMPONENT_COUNT>
1

> <PUBCHEM_CACTVS_TAUTO_COUNT>
-1

> <PUBCHEM_COORDINATE_TYPE>
1
5
255

> <PUBCHEM_BONDANNOTATIONS>
1  16  8
1  19  8
12  13  8
17  20  8
17  21  8
18  19  8
20  23  8
21  24  8
23  25  8
24  25  8
5  13  8
5  16  8
5  18  8
6  12  8
6  16  8

$$$$
169450430
  -OEChem-07082511212D

 61 65  0     0  0  0  0  0  0999 V2000
    2.8660   -1.5352    0.0000 O   0  0  0  0  0  0  0  0  0  0  0  0
    4.5981   -4.5352    0.0000 O   0  0  0  0  0  0  0  0  0  0  0  0
    2.8660   -3.5352    0.0000 O   0  0  0  0  0  0  0  0  0  0  0  0
    6.6962    2.5036    0.0000 N   0  0  0  0  0  0  0  0  0  0  0  0
    7.6962    2.5036    0.0000 N   0  0  0  0  0  0  0  0  0  0  0  0
    8.0622   -0.5352    0.0000 N   0  0  0  0  0  0  0  0  0  0  0  0
    7.1962   -2.0352    0.0000 N   0  0  0  0  0  0  0  0  0  0  0  0
    8.9282   -2.0352    0.0000 N   0  0  0  0  0  0  0  0  0  0  0  0
    7.1962    0.9648    0.0000 C   0  0  0  0  0  0  0  0  0  0  0  0
    8.0052    1.5526    0.0000 C   0  0  0  0  0  0  0  0  0  0  0  0
    7.1962   -0.0352    0.0000 C   0  0  0  0  0  0  0  0  0  0  0  0
    6.3871    1.5526    0.0000 C   0  0  0  0  0  0  0  0  0  0  0  0
    8.9562    1.2436    0.0000 C   0  0  0  0  0  0  0  0  0  0  0  0
    6.3301   -1.5352    0.0000 C   0  0  0  0  0  0  0  0  0  0  0  0
    6.3301   -0.5352    0.0000 C   0  0  0  0  0  0  0  0  0  0  0  0
    5.4641   -2.0352    0.0000 C   0  0  0  0  0  0  0  0  0  0  0  0
    6.1084    3.3126    0.0000 C   0  0  0  0  0  0  0  0  0  0  0  0
    5.4641   -3.0352    0.0000 C   0  0  0  0  0  0  0  0  0  0  0  0
    4.5981   -1.5352    0.0000 C   0  0  0  0  0  0  0  0  0  0  0  0
    9.1641    0.2654    0.0000 C   0  0  0  0  0  0  0  0  0  0  0  0
    9.6994    1.9127    0.0000 C   0  0  0  0  0  0  0  0  0  0  0  0
    3.7320   -2.0352    0.0000 C   0  0  0  0  0  0  0  0  0  0  0  0
    4.5981   -3.5352    0.0000 C   0  0  0  0  0  0  0  0  0  0  0  0
    3.7320   -3.0352    0.0000 C   0  0  0  0  0  0  0  0  0  0  0  0
    8.0622   -1.5352    0.0000 C   0  0  0  0  0  0  0  0  0  0  0  0
    5.1138    3.2081    0.0000 C   0  0  0  0  0  0  0  0  0  0  0  0
    6.5151    4.2262    0.0000 C   0  0  0  0  0  0  0  0  0  0  0  0
   10.1152   -0.0436    0.0000 C   0  0  0  0  0  0  0  0  0  0  0  0
   10.6504    1.6037    0.0000 C   0  0  0  0  0  0  0  0  0  0  0  0
    4.5261    4.0171    0.0000 C   0  0  0  0  0  0  0  0  0  0  0  0
    5.9273    5.0352    0.0000 C   0  0  0  0  0  0  0  0  0  0  0  0
   10.8583    0.6255    0.0000 C   0  0  0  0  0  0  0  0  0  0  0  0
    4.9328    4.9307    0.0000 C   0  0  0  0  0  0  0  0  0  0  0  0
    2.0000   -2.0352    0.0000 C   0  0  0  0  0  0  0  0  0  0  0  0
    5.4641   -5.0352    0.0000 C   0  0  0  0  0  0  0  0  0  0  0  0
    2.8660   -4.5352    0.0000 C   0  0  0  0  0  0  0  0  0  0  0  0
    5.7975    1.3610    0.0000 H   0  0  0  0  0  0  0  0  0  0  0  0
    5.7932   -0.2252    0.0000 H   0  0  0  0  0  0  0  0  0  0  0  0
    6.0010   -3.3452    0.0000 H   0  0  0  0  0  0  0  0  0  0  0  0
    4.5981   -0.9152    0.0000 H   0  0  0  0  0  0  0  0  0  0  0  0
    8.7034   -0.1495    0.0000 H   0  0  0  0  0  0  0  0  0  0  0  0
    9.5705    2.5191    0.0000 H   0  0  0  0  0  0  0  0  0  0  0  0
    4.8617    2.6417    0.0000 H   0  0  0  0  0  0  0  0  0  0  0  0
    7.1317    4.2910    0.0000 H   0  0  0  0  0  0  0  0  0  0  0  0
   10.2441   -0.6501    0.0000 H   0  0  0  0  0  0  0  0  0  0  0  0
   11.1112    2.0185    0.0000 H   0  0  0  0  0  0  0  0  0  0  0  0
    3.9095    3.9523    0.0000 H   0  0  0  0  0  0  0  0  0  0  0  0
    6.1795    5.6016    0.0000 H   0  0  0  0  0  0  0  0  0  0  0  0
   11.4480    0.4339    0.0000 H   0  0  0  0  0  0  0  0  0  0  0  0
    4.5684    5.4323    0.0000 H   0  0  0  0  0  0  0  0  0  0  0  0
    8.9282   -2.6552    0.0000 H   0  0  0  0  0  0  0  0  0  0  0  0
    9.4651   -1.7252    0.0000 H   0  0  0  0  0  0  0  0  0  0  0  0
    1.6900   -1.4983    0.0000 H   0  0  0  0  0  0  0  0  0  0  0  0
    1.4631   -2.3452    0.0000 H   0  0  0  0  0  0  0  0  0  0  0  0
    2.3100   -2.5722    0.0000 H   0  0  0  0  0  0  0  0  0  0  0  0
    5.1541   -5.5722    0.0000 H   0  0  0  0  0  0  0  0  0  0  0  0
    6.0010   -5.3452    0.0000 H   0  0  0  0  0  0  0  0  0  0  0  0
    5.7741   -4.4983    0.0000 H   0  0  0  0  0  0  0  0  0  0  0  0
    2.2460   -4.5352    0.0000 H   0  0  0  0  0  0  0  0  0  0  0  0
    2.8660   -5.1552    0.0000 H   0  0  0  0  0  0  0  0  0  0  0  0
    3.4860   -4.5352    0.0000 H   0  0  0  0  0  0  0  0  0  0  0  0
  1 22  1  0  0  0  0
  1 34  1  0  0  0  0
  2 23  1  0  0  0  0
  2 35  1  0  0  0  0
  3 24  1  0  0  0  0
  3 36  1  0  0  0  0
  4  5  1  0  0  0  0
  4 12  1  0  0  0  0
  4 17  1  0  0  0  0
  5 10  2  0  0  0  0
  6 11  2  0  0  0  0
  6 25  1  0  0  0  0
  7 14  1  0  0  0  0
  7 25  2  0  0  0  0
  8 25  1  0  0  0  0
  8 51  1  0  0  0  0
  8 52  1  0  0  0  0
  9 10  1  0  0  0  0
  9 11  1  0  0  0  0
  9 12  2  0  0  0  0
 10 13  1  0  0  0  0
 11 15  1  0  0  0  0
 12 37  1  0  0  0  0
 13 20  2  0  0  0  0
 13 21  1  0  0  0  0
 14 15  2  0  0  0  0
 14 16  1  0  0  0  0
 15 38  1  0  0  0  0
 16 18  2  0  0  0  0
 16 19  1  0  0  0  0
 17 26  2  0  0  0  0
 17 27  1  0  0  0  0
 18 23  1  0  0  0  0
 18 39  1  0  0  0  0
 19 22  2  0  0  0  0
 19 40  1  0  0  0  0
 20 28  1  0  0  0  0
 20 41  1  0  0  0  0
 21 29  2  0  0  0  0
 21 42  1  0  0  0  0
 22 24  1  0  0  0  0
 23 24  2  0  0  0  0
 26 30  1  0  0  0  0
 26 43  1  0  0  0  0
 27 31  2  0  0  0  0
 27 44  1  0  0  0  0
 28 32  2  0  0  0  0
 28 45  1  0  0  0  0
 29 32  1  0  0  0  0
 29 46  1  0  0  0  0
 30 33  2  0  0  0  0
 30 47  1  0  0  0  0
 31 33  1  0  0  0  0
 31 48  1  0  0  0  0
 32 49  1  0  0  0  0
 33 50  1  0  0  0  0
 34 53  1  0  0  0  0
 34 54  1  0  0  0  0
 34 55  1  0  0  0  0
 35 56  1  0  0  0  0
 35 57  1  0  0  0  0
 35 58  1  0  0  0  0
 36 59  1  0  0  0  0
 36 60  1  0  0  0  0
 36 61  1  0  0  0  0
M  END
> <PUBCHEM_COMPOUND_CID>
169450430

> <PUBCHEM_COMPOUND_CANONICALIZED>
1

> <PUBCHEM_CACTVS_COMPLEXITY>
660

> <PUBCHEM_CACTVS_HBOND_ACCEPTOR>
7

> <PUBCHEM_CACTVS_HBOND_DONOR>
1

> <PUBCHEM_CACTVS_ROTATABLE_BOND>
7

> <PUBCHEM_CACTVS_SUBSKEYS>
AAADceB7sAAAAAAAAAAAAAAAAAAAAWAAAAA8YMEAAAAAAAAB9AAAHgAYAAAADAzBngY/1pZIFACiAzRnZACSjCkxoqAZmCA+7JiNL+LE+duEtCptyBfK6Cew8P8OIAABCAAAQABAAAIQAACAAAAAAAAAAA==

> <PUBCHEM_IUPAC_OPENEYE_NAME>
4-(1,3-diphenylpyrazol-4-yl)-6-(3,4,5-trimethoxyphenyl)pyrimidin-2-amine

> <PUBCHEM_IUPAC_CAS_NAME>
4-(1,3-diphenyl-4-pyrazolyl)-6-(3,4,5-trimethoxyphenyl)-2-pyrimidinamine

> <PUBCHEM_IUPAC_NAME_MARKUP>
4-(1,3-diphenylpyrazol-4-yl)-6-(3,4,5-trimethoxyphenyl)pyrimidin-2-amine

> <PUBCHEM_IUPAC_NAME>
4-(1,3-diphenylpyrazol-4-yl)-6-(3,4,5-trimethoxyphenyl)pyrimidin-2-amine

> <PUBCHEM_IUPAC_SYSTEMATIC_NAME>
4-(1,3-diphenylpyrazol-4-yl)-6-(3,4,5-trimethoxyphenyl)pyrimidin-2-amine

> <PUBCHEM_IUPAC_TRADITIONAL_NAME>
[4-(1,3-diphenylpyrazol-4-yl)-6-(3,4,5-trimethoxyphenyl)pyrimidin-2-yl]amine

> <PUBCHEM_IUPAC_INCHI>
InChI=1S/C28H25N5O3/c1-34-24-14-19(15-25(35-2)27(24)36-3)22-16-23(31-28(29)30-22)21-17-33(20-12-8-5-9-13-20)32-26(21)18-10-6-4-7-11-18/h4-17H,1-3H3,(H2,29,30,31)

> <PUBCHEM_IUPAC_INCHIKEY>
MEMCKFAZJRMZAC-UHFFFAOYSA-N

> <PUBCHEM_XLOGP3_AA>
4.7

> <PUBCHEM_EXACT_MASS>
479.19573968

> <PUBCHEM_MOLECULAR_FORMULA>
C28H25N5O3

> <PUBCHEM_MOLECULAR_WEIGHT>
479.5

> <PUBCHEM_CACTVS_TPSA>
97.3

> <PUBCHEM_MONOISOTOPIC_WEIGHT>
479.19573968

> <PUBCHEM_TOTAL_CHARGE>
0

> <PUBCHEM_HEAVY_ATOM_COUNT>
36

> <PUBCHEM_ATOM_DEF_STEREO_COUNT>
0

> <PUBCHEM_ATOM_UDEF_STEREO_COUNT>
0

> <PUBCHEM_BOND_DEF_STEREO_COUNT>
0

> <PUBCHEM_BOND_UDEF_STEREO_COUNT>
0

> <PUBCHEM_ISOTOPIC_ATOM_COUNT>
0

> <PUBCHEM_COMPONENT_COUNT>
1

> <PUBCHEM_CACTVS_TAUTO_COUNT>
-1

> <PUBCHEM_COORDINATE_TYPE>
1
5
255

> <PUBCHEM_BONDANNOTATIONS>
11  15  8
13  20  8
13  21  8
14  15  8
16  18  8
16  19  8
17  26  8
17  27  8
18  23  8
19  22  8
20  28  8
21  29  8
22  24  8
23  24  8
26  30  8
27  31  8
28  32  8
29  32  8
30  33  8
31  33  8
4  12  8
4  5  8
5  10  8
6  11  8
6  25  8
7  14  8
7  25  8
9  10  8
9  12  8

$$$$
169450172
  -OEChem-07082511212D

 47 49  0     0  0  0  0  0  0999 V2000
    2.8660   -2.0000    0.0000 O   0  0  0  0  0  0  0  0  0  0  0  0
    5.4641    4.5000    0.0000 O   0  5  0  0  0  0  0  0  0  0  0  0
    3.7320    4.5000    0.0000 O   0  0  0  0  0  0  0  0  0  0  0  0
    4.5981   -2.0000    0.0000 N   0  0  0  0  0  0  0  0  0  0  0  0
    4.5981    4.0000    0.0000 N   0  3  0  0  0  0  0  0  0  0  0  0
    2.0000    0.5000    0.0000 N   0  0  0  0  0  0  0  0  0  0  0  0
    4.5981   -0.0000    0.0000 C   0  0  0  0  0  0  0  0  0  0  0  0
    5.4641   -1.5000    0.0000 C   0  0  0  0  0  0  0  0  0  0  0  0
    4.5981    1.0000    0.0000 C   0  0  0  0  0  0  0  0  0  0  0  0
    5.4641   -0.5000    0.0000 C   0  0  0  0  0  0  0  0  0  0  0  0
    6.3301   -2.0000    0.0000 C   0  0  0  0  0  0  0  0  0  0  0  0
    3.7320   -0.5000    0.0000 C   0  0  0  0  0  0  0  0  0  0  0  0
    3.7320   -1.5000    0.0000 C   0  0  0  0  0  0  0  0  0  0  0  0
    7.1962   -1.5000    0.0000 C   0  0  0  0  0  0  0  0  0  0  0  0
    6.3301   -3.0000    0.0000 C   0  0  0  0  0  0  0  0  0  0  0  0
    2.8660   -3.0000    0.0000 C   0  0  0  0  0  0  0  0  0  0  0  0
    3.7320    1.5000    0.0000 C   0  0  0  0  0  0  0  0  0  0  0  0
    5.4641    1.5000    0.0000 C   0  0  0  0  0  0  0  0  0  0  0  0
    8.0622   -3.0000    0.0000 C   0  0  0  0  0  0  0  0  0  0  0  0
    2.0000   -3.5000    0.0000 C   0  0  0  0  0  0  0  0  0  0  0  0
    8.0622   -2.0000    0.0000 C   0  0  0  0  0  0  0  0  0  0  0  0
    7.1962   -3.5000    0.0000 C   0  0  0  0  0  0  0  0  0  0  0  0
    3.7320    2.5000    0.0000 C   0  0  0  0  0  0  0  0  0  0  0  0
    5.4641    2.5000    0.0000 C   0  0  0  0  0  0  0  0  0  0  0  0
    4.5981    3.0000    0.0000 C   0  0  0  0  0  0  0  0  0  0  0  0
    2.0000   -4.5000    0.0000 C   0  0  0  0  0  0  0  0  0  0  0  0
    8.9282   -3.5000    0.0000 C   0  0  0  0  0  0  0  0  0  0  0  0
    2.8660   -0.0000    0.0000 C   0  0  0  0  0  0  0  0  0  0  0  0
    6.0010   -0.1900    0.0000 H   0  0  0  0  0  0  0  0  0  0  0  0
    3.0781   -3.5826    0.0000 H   0  0  0  0  0  0  0  0  0  0  0  0
    3.4766   -2.8923    0.0000 H   0  0  0  0  0  0  0  0  0  0  0  0
    7.1962   -0.8800    0.0000 H   0  0  0  0  0  0  0  0  0  0  0  0
    5.7932   -3.3100    0.0000 H   0  0  0  0  0  0  0  0  0  0  0  0
    3.1951    1.1900    0.0000 H   0  0  0  0  0  0  0  0  0  0  0  0
    6.0010    1.1900    0.0000 H   0  0  0  0  0  0  0  0  0  0  0  0
    1.7880   -2.9174    0.0000 H   0  0  0  0  0  0  0  0  0  0  0  0
    1.3894   -3.6077    0.0000 H   0  0  0  0  0  0  0  0  0  0  0  0
    8.5991   -1.6900    0.0000 H   0  0  0  0  0  0  0  0  0  0  0  0
    7.1962   -4.1200    0.0000 H   0  0  0  0  0  0  0  0  0  0  0  0
    3.1951    2.8100    0.0000 H   0  0  0  0  0  0  0  0  0  0  0  0
    6.0010    2.8100    0.0000 H   0  0  0  0  0  0  0  0  0  0  0  0
    1.3800   -4.5000    0.0000 H   0  0  0  0  0  0  0  0  0  0  0  0
    2.0000   -5.1200    0.0000 H   0  0  0  0  0  0  0  0  0  0  0  0
    2.6200   -4.5000    0.0000 H   0  0  0  0  0  0  0  0  0  0  0  0
    8.6182   -4.0369    0.0000 H   0  0  0  0  0  0  0  0  0  0  0  0
    9.4651   -3.8100    0.0000 H   0  0  0  0  0  0  0  0  0  0  0  0
    9.2382   -2.9631    0.0000 H   0  0  0  0  0  0  0  0  0  0  0  0
  1 13  1  0  0  0  0
  1 16  1  0  0  0  0
  2  5  1  0  0  0  0
  3  5  2  0  0  0  0
  4  8  2  0  0  0  0
  4 13  1  0  0  0  0
  5 25  1  0  0  0  0
  6 28  3  0  0  0  0
  7  9  1  0  0  0  0
  7 10  2  0  0  0  0
  7 12  1  0  0  0  0
  8 10  1  0  0  0  0
  8 11  1  0  0  0  0
  9 17  2  0  0  0  0
  9 18  1  0  0  0  0
 10 29  1  0  0  0  0
 11 14  2  0  0  0  0
 11 15  1  0  0  0  0
 12 13  2  0  0  0  0
 12 28  1  0  0  0  0
 14 21  1  0  0  0  0
 14 32  1  0  0  0  0
 15 22  2  0  0  0  0
 15 33  1  0  0  0  0
 16 20  1  0  0  0  0
 16 30  1  0  0  0  0
 16 31  1  0  0  0  0
 17 23  1  0  0  0  0
 17 34  1  0  0  0  0
 18 24  2  0  0  0  0
 18 35  1  0  0  0  0
 19 21  2  0  0  0  0
 19 22  1  0  0  0  0
 19 27  1  0  0  0  0
 20 26  1  0  0  0  0
 20 36  1  0  0  0  0
 20 37  1  0  0  0  0
 21 38  1  0  0  0  0
 22 39  1  0  0  0  0
 23 25  2  0  0  0  0
 23 40  1  0  0  0  0
 24 25  1  0  0  0  0
 24 41  1  0  0  0  0
 26 42  1  0  0  0  0
 26 43  1  0  0  0  0
 26 44  1  0  0  0  0
 27 45  1  0  0  0  0
 27 46  1  0  0  0  0
 27 47  1  0  0  0  0
M  CHG  2   2  -1   5   1
M  END
> <PUBCHEM_COMPOUND_CID>
169450172

> <PUBCHEM_COMPOUND_CANONICALIZED>
1

> <PUBCHEM_CACTVS_COMPLEXITY>
553

> <PUBCHEM_CACTVS_HBOND_ACCEPTOR>
5

> <PUBCHEM_CACTVS_HBOND_DONOR>
0

> <PUBCHEM_CACTVS_ROTATABLE_BOND>
5

> <PUBCHEM_CACTVS_SUBSKEYS>
AAADceB7MAAAAAAAAAAAAAAAAAAAAAAAAAA8YIAAAAAAAAAB0AAAHgAEAAAADAihngIyxJIYVACxByRiRwCiiCAhIiAomCA0bJoMpuLEsZuOOCjkwBHI6A+Q0OEOyAAAAAAAAACQAAAAAAAAAAAAAAAAAA==

> <PUBCHEM_IUPAC_OPENEYE_NAME>
4-(4-nitrophenyl)-2-propoxy-6-(p-tolyl)pyridine-3-carbonitrile

> <PUBCHEM_IUPAC_CAS_NAME>
6-(4-methylphenyl)-4-(4-nitrophenyl)-2-propoxy-3-pyridinecarbonitrile

> <PUBCHEM_IUPAC_NAME_MARKUP>
6-(4-methylphenyl)-4-(4-nitrophenyl)-2-propoxypyridine-3-carbonitrile

> <PUBCHEM_IUPAC_NAME>
6-(4-methylphenyl)-4-(4-nitrophenyl)-2-propoxypyridine-3-carbonitrile

> <PUBCHEM_IUPAC_SYSTEMATIC_NAME>
6-(4-methylphenyl)-4-(4-nitrophenyl)-2-propoxy-pyridine-3-carbonitrile

> <PUBCHEM_IUPAC_TRADITIONAL_NAME>
4-(4-nitrophenyl)-2-propoxy-6-(p-tolyl)nicotinonitrile

> <PUBCHEM_IUPAC_INCHI>
InChI=1S/C22H19N3O3/c1-3-12-28-22-20(14-23)19(16-8-10-18(11-9-16)25(26)27)13-21(24-22)17-6-4-15(2)5-7-17/h4-11,13H,3,12H2,1-2H3

> <PUBCHEM_IUPAC_INCHIKEY>
SZXRICGJAJGTRE-UHFFFAOYSA-N

> <PUBCHEM_XLOGP3_AA>
5.3

> <PUBCHEM_EXACT_MASS>
373.14264148

> <PUBCHEM_MOLECULAR_FORMULA>
C22H19N3O3

> <PUBCHEM_MOLECULAR_WEIGHT>
373.4

> <PUBCHEM_CACTVS_TPSA>
91.7

> <PUBCHEM_MONOISOTOPIC_WEIGHT>
373.14264148

> <PUBCHEM_TOTAL_CHARGE>
0

> <PUBCHEM_HEAVY_ATOM_COUNT>
28

> <PUBCHEM_ATOM_DEF_STEREO_COUNT>
0

> <PUBCHEM_ATOM_UDEF_STEREO_COUNT>
0

> <PUBCHEM_BOND_DEF_STEREO_COUNT>
0

> <PUBCHEM_BOND_UDEF_STEREO_COUNT>
0

> <PUBCHEM_ISOTOPIC_ATOM_COUNT>
0

> <PUBCHEM_COMPONENT_COUNT>
1

> <PUBCHEM_CACTVS_TAUTO_COUNT>
-1

> <PUBCHEM_COORDINATE_TYPE>
1
5
255

> <PUBCHEM_BONDANNOTATIONS>
11  14  8
11  15  8
12  13  8
14  21  8
15  22  8
17  23  8
18  24  8
19  21  8
19  22  8
23  25  8
24  25  8
4  13  8
4  8  8
7  10  8
7  12  8
8  10  8
9  17  8
9  18  8

$$$$
171037939
  -OEChem-07082511212D

 75 79  0     1  0  0  0  0  0999 V2000
    8.5836   -1.7740    0.0000 S   0  0  0  0  0  0  0  0  0  0  0  0
   10.7745    2.4641    0.0000 O   0  0  0  0  0  0  0  0  0  0  0  0
   13.9119    1.0725    0.0000 O   0  0  0  0  0  0  0  0  0  0  0  0
    6.5000   -0.1032    0.0000 O   0  0  0  0  0  0  0  0  0  0  0  0
    2.0000   -0.9692    0.0000 O   0  0  0  0  0  0  0  0  0  0  0  0
   10.3959   -1.9692    0.0000 N   0  0  0  0  0  0  0  0  0  0  0  0
    8.2730    0.7860    0.0000 N   0  0  0  0  0  0  0  0  0  0  0  0
   15.6126   -2.0023    0.0000 N   0  0  0  0  0  0  0  0  0  0  0  0
    6.5000   -1.8353    0.0000 N   0  0  0  0  0  0  0  0  0  0  0  0
   12.1799    1.0792    0.0000 C   0  0  3  0  0  0  0  0  0  0  0  0
   11.2778    1.6000    0.0000 C   0  0  3  0  0  0  0  0  0  0  0  0
   12.1719    0.0376    0.0000 C   0  0  3  0  0  0  0  0  0  0  0  0
   10.3798    1.0723    0.0000 C   0  0  0  0  0  0  0  0  0  0  0  0
   11.2619   -0.4692    0.0000 C   0  0  0  0  0  0  0  0  0  0  0  0
   10.3959    0.0308    0.0000 C   0  0  0  0  0  0  0  0  0  0  0  0
   11.7745    2.4680    0.0000 C   0  0  0  0  0  0  0  0  0  0  0  0
   13.0321   -0.4724    0.0000 C   0  0  0  0  0  0  0  0  0  0  0  0
   13.0479    1.5759    0.0000 C   0  0  0  0  0  0  0  0  0  0  0  0
    9.5298   -0.4692    0.0000 C   0  0  0  0  0  0  0  0  0  0  0  0
   11.2619   -1.4692    0.0000 C   0  0  0  0  0  0  0  0  0  0  0  0
    9.5298   -1.4692    0.0000 C   0  0  0  0  0  0  0  0  0  0  0  0
    8.5836   -0.1645    0.0000 C   0  0  0  0  0  0  0  0  0  0  0  0
   13.0517    2.5759    0.0000 C   0  0  0  0  0  0  0  0  0  0  0  0
   13.9038    0.0176    0.0000 C   0  0  0  0  0  0  0  0  0  0  0  0
   13.0205   -1.4723    0.0000 C   0  0  0  0  0  0  0  0  0  0  0  0
   12.1279   -1.9692    0.0000 C   0  0  0  0  0  0  0  0  0  0  0  0
    8.0000   -0.9692    0.0000 C   0  0  0  0  0  0  0  0  0  0  0  0
   14.7640   -0.4924    0.0000 C   0  0  0  0  0  0  0  0  0  0  0  0
   13.8807   -1.9823    0.0000 C   0  0  0  0  0  0  0  0  0  0  0  0
   14.7524   -1.4923    0.0000 C   0  0  0  0  0  0  0  0  0  0  0  0
    7.0000   -0.9692    0.0000 C   0  0  0  0  0  0  0  0  0  0  0  0
   16.4844   -1.5124    0.0000 C   0  0  0  0  0  0  0  0  0  0  0  0
   15.6011   -3.0022    0.0000 C   0  0  0  0  0  0  0  0  0  0  0  0
    5.5000   -1.8353    0.0000 C   0  0  0  0  0  0  0  0  0  0  0  0
    5.0000   -0.9692    0.0000 C   0  0  0  0  0  0  0  0  0  0  0  0
    5.0000   -2.7013    0.0000 C   0  0  0  0  0  0  0  0  0  0  0  0
    4.0000   -0.9692    0.0000 C   0  0  0  0  0  0  0  0  0  0  0  0
    4.0000   -2.7013    0.0000 C   0  0  0  0  0  0  0  0  0  0  0  0
    3.5000   -1.8353    0.0000 C   0  0  0  0  0  0  0  0  0  0  0  0
    2.5000   -1.8353    0.0000 C   0  0  0  0  0  0  0  0  0  0  0  0
    2.0000   -2.7013    0.0000 C   0  0  0  0  0  0  0  0  0  0  0  0
   12.1811    1.6992    0.0000 H   0  0  0  0  0  0  0  0  0  0  0  0
   12.7118    0.3424    0.0000 H   0  0  0  0  0  0  0  0  0  0  0  0
   10.1618    1.6527    0.0000 H   0  0  0  0  0  0  0  0  0  0  0  0
    9.7706    0.9568    0.0000 H   0  0  0  0  0  0  0  0  0  0  0  0
   12.3126    2.1600    0.0000 H   0  0  0  0  0  0  0  0  0  0  0  0
   12.0824    3.0061    0.0000 H   0  0  0  0  0  0  0  0  0  0  0  0
   11.2364    2.7759    0.0000 H   0  0  0  0  0  0  0  0  0  0  0  0
   11.0824    3.0022    0.0000 H   0  0  0  0  0  0  0  0  0  0  0  0
   13.6717    2.5735    0.0000 H   0  0  0  0  0  0  0  0  0  0  0  0
   13.0541    3.1959    0.0000 H   0  0  0  0  0  0  0  0  0  0  0  0
   12.4317    2.5782    0.0000 H   0  0  0  0  0  0  0  0  0  0  0  0
   13.9110    0.6375    0.0000 H   0  0  0  0  0  0  0  0  0  0  0  0
   12.4800   -1.7761    0.0000 H   0  0  0  0  0  0  0  0  0  0  0  0
   11.8179   -2.5062    0.0000 H   0  0  0  0  0  0  0  0  0  0  0  0
   12.6648   -2.2792    0.0000 H   0  0  0  0  0  0  0  0  0  0  0  0
   12.4379   -1.4323    0.0000 H   0  0  0  0  0  0  0  0  0  0  0  0
   15.3045   -0.1886    0.0000 H   0  0  0  0  0  0  0  0  0  0  0  0
   13.8735   -2.6022    0.0000 H   0  0  0  0  0  0  0  0  0  0  0  0
    7.6663    0.9139    0.0000 H   0  0  0  0  0  0  0  0  0  0  0  0
    8.6870    1.2475    0.0000 H   0  0  0  0  0  0  0  0  0  0  0  0
    6.8100   -2.3722    0.0000 H   0  0  0  0  0  0  0  0  0  0  0  0
   16.7881   -2.0528    0.0000 H   0  0  0  0  0  0  0  0  0  0  0  0
   17.0249   -1.2086    0.0000 H   0  0  0  0  0  0  0  0  0  0  0  0
   16.1806   -0.9719    0.0000 H   0  0  0  0  0  0  0  0  0  0  0  0
   14.9811   -2.9951    0.0000 H   0  0  0  0  0  0  0  0  0  0  0  0
   15.5939   -3.6222    0.0000 H   0  0  0  0  0  0  0  0  0  0  0  0
   16.2210   -3.0094    0.0000 H   0  0  0  0  0  0  0  0  0  0  0  0
    5.3100   -0.4323    0.0000 H   0  0  0  0  0  0  0  0  0  0  0  0
    5.3100   -3.2382    0.0000 H   0  0  0  0  0  0  0  0  0  0  0  0
    3.6900   -0.4323    0.0000 H   0  0  0  0  0  0  0  0  0  0  0  0
    3.6900   -3.2382    0.0000 H   0  0  0  0  0  0  0  0  0  0  0  0
    1.4631   -2.3913    0.0000 H   0  0  0  0  0  0  0  0  0  0  0  0
    1.6900   -3.2382    0.0000 H   0  0  0  0  0  0  0  0  0  0  0  0
    2.5369   -3.0113    0.0000 H   0  0  0  0  0  0  0  0  0  0  0  0
  1 21  1  0  0  0  0
  1 27  1  0  0  0  0
  2 11  1  0  0  0  0
  2 49  1  0  0  0  0
  3 18  2  0  0  0  0
  4 31  2  0  0  0  0
  5 40  2  0  0  0  0
  6 20  1  0  0  0  0
  6 21  2  0  0  0  0
  7 22  1  0  0  0  0
  7 60  1  0  0  0  0
  7 61  1  0  0  0  0
  8 30  1  0  0  0  0
  8 32  1  0  0  0  0
  8 33  1  0  0  0  0
  9 31  1  0  0  0  0
  9 34  1  0  0  0  0
  9 62  1  0  0  0  0
 10 11  1  0  0  0  0
 10 12  1  0  0  0  0
 10 18  1  0  0  0  0
 10 42  1  0  0  0  0
 11 13  1  0  0  0  0
 11 16  1  0  0  0  0
 12 14  1  0  0  0  0
 12 17  1  0  0  0  0
 12 43  1  0  0  0  0
 13 15  1  0  0  0  0
 13 44  1  0  0  0  0
 13 45  1  0  0  0  0
 14 15  1  0  0  0  0
 14 20  2  0  0  0  0
 15 19  2  0  0  0  0
 16 46  1  0  0  0  0
 16 47  1  0  0  0  0
 16 48  1  0  0  0  0
 17 24  2  0  0  0  0
 17 25  1  0  0  0  0
 18 23  1  0  0  0  0
 19 21  1  0  0  0  0
 19 22  1  0  0  0  0
 20 26  1  0  0  0  0
 22 27  2  0  0  0  0
 23 50  1  0  0  0  0
 23 51  1  0  0  0  0
 23 52  1  0  0  0  0
 24 28  1  0  0  0  0
 24 53  1  0  0  0  0
 25 29  2  0  0  0  0
 25 54  1  0  0  0  0
 26 55  1  0  0  0  0
 26 56  1  0  0  0  0
 26 57  1  0  0  0  0
 27 31  1  0  0  0  0
 28 30  2  0  0  0  0
 28 58  1  0  0  0  0
 29 30  1  0  0  0  0
 29 59  1  0  0  0  0
 32 63  1  0  0  0  0
 32 64  1  0  0  0  0
 32 65  1  0  0  0  0
 33 66  1  0  0  0  0
 33 67  1  0  0  0  0
 33 68  1  0  0  0  0
 34 35  2  0  0  0  0
 34 36  1  0  0  0  0
 35 37  1  0  0  0  0
 35 69  1  0  0  0  0
 36 38  2  0  0  0  0
 36 70  1  0  0  0  0
 37 39  2  0  0  0  0
 37 71  1  0  0  0  0
 38 39  1  0  0  0  0
 38 72  1  0  0  0  0
 39 40  1  0  0  0  0
 40 41  1  0  0  0  0
 41 73  1  0  0  0  0
 41 74  1  0  0  0  0
 41 75  1  0  0  0  0
M  END
> <PUBCHEM_COMPOUND_CID>
171037939

> <PUBCHEM_COMPOUND_CANONICALIZED>
1

> <PUBCHEM_CACTVS_COMPLEXITY>
994

> <PUBCHEM_CACTVS_HBOND_ACCEPTOR>
8

> <PUBCHEM_CACTVS_HBOND_DONOR>
3

> <PUBCHEM_CACTVS_ROTATABLE_BOND>
6

> <PUBCHEM_CACTVS_SUBSKEYS>
AAADcfB/uABAAAAAAAAAAAAAAAAAASAAAAA8YMEAAAAAAFix/AAAHgQQCAAADUyB3gQywdPIEgisA6VyVACD0KBlCjgImDU4ZNgIIH7g1dGEZYxk9AHoyceY2fOeiAAAAAAAAADQAAYAADAAAAAAAAAAAA==

> <PUBCHEM_IUPAC_OPENEYE_NAME>
7-acetyl-N-(4-acetylphenyl)-1-amino-6-[4-(dimethylamino)phenyl]-8-hydroxy-5,8-dimethyl-7,9-dihydro-6H-thieno[2,3-c]isoquinoline-2-carboxamide

> <PUBCHEM_IUPAC_CAS_NAME>
7-acetyl-N-(4-acetylphenyl)-1-amino-6-[4-(dimethylamino)phenyl]-8-hydroxy-5,8-dimethyl-7,9-dihydro-6H-thieno[2,3-c]isoquinoline-2-carboxamide

> <PUBCHEM_IUPAC_NAME_MARKUP>
7-acetyl-<I>N</I>-(4-acetylphenyl)-1-amino-6-[4-(dimethylamino)phenyl]-8-hydroxy-5,8-dimethyl-7,9-dihydro-6<I>H</I>-thieno[2,3-c]isoquinoline-2-carboxamide

> <PUBCHEM_IUPAC_NAME>
7-acetyl-N-(4-acetylphenyl)-1-amino-6-[4-(dimethylamino)phenyl]-8-hydroxy-5,8-dimethyl-7,9-dihydro-6H-thieno[2,3-c]isoquinoline-2-carboxamide

> <PUBCHEM_IUPAC_SYSTEMATIC_NAME>
1-azanyl-6-[4-(dimethylamino)phenyl]-7-ethanoyl-N-(4-ethanoylphenyl)-5,8-dimethyl-8-oxidanyl-7,9-dihydro-6H-thieno[2,3-c]isoquinoline-2-carboxamide

> <PUBCHEM_IUPAC_TRADITIONAL_NAME>
7-acetyl-N-(4-acetylphenyl)-1-amino-6-[4-(dimethylamino)phenyl]-8-hydroxy-5,8-dimethyl-7,9-dihydro-6H-thien[2,3-c]isoquinoline-2-carboxamide

> <PUBCHEM_IUPAC_INCHI>
InChI=1S/C32H34N4O4S/c1-16-24-23(15-32(4,40)27(18(3)38)25(24)20-9-13-22(14-10-20)36(5)6)26-28(33)29(41-31(26)34-16)30(39)35-21-11-7-19(8-12-21)17(2)37/h7-14,25,27,40H,15,33H2,1-6H3,(H,35,39)

> <PUBCHEM_IUPAC_INCHIKEY>
KPVZTTLDEPSOPU-UHFFFAOYSA-N

> <PUBCHEM_XLOGP3_AA>
5

> <PUBCHEM_EXACT_MASS>
570.23007675

> <PUBCHEM_MOLECULAR_FORMULA>
C32H34N4O4S

> <PUBCHEM_MOLECULAR_WEIGHT>
570.7

> <PUBCHEM_CACTVS_TPSA>
154

> <PUBCHEM_MONOISOTOPIC_WEIGHT>
570.23007675

> <PUBCHEM_TOTAL_CHARGE>
0

> <PUBCHEM_HEAVY_ATOM_COUNT>
41

> <PUBCHEM_ATOM_DEF_STEREO_COUNT>
0

> <PUBCHEM_ATOM_UDEF_STEREO_COUNT>
3

> <PUBCHEM_BOND_DEF_STEREO_COUNT>
0

> <PUBCHEM_BOND_UDEF_STEREO_COUNT>
0

> <PUBCHEM_ISOTOPIC_ATOM_COUNT>
0

> <PUBCHEM_COMPONENT_COUNT>
1

> <PUBCHEM_CACTVS_TAUTO_COUNT>
-1

> <PUBCHEM_COORDINATE_TYPE>
1
5
255

> <PUBCHEM_BONDANNOTATIONS>
1  21  8
1  27  8
10  18  3
12  17  3
14  15  8
14  20  8
15  19  8
17  24  8
17  25  8
19  21  8
19  22  8
11  2  3
22  27  8
24  28  8
25  29  8
28  30  8
29  30  8
34  35  8
34  36  8
35  37  8
36  38  8
37  39  8
38  39  8
6  20  8
6  21  8

$$$$
45151573
  -OEChem-07082511212D

 41 45  0     1  0  0  0  0  0999 V2000
    2.8660   -5.2128    0.0000 Br  0  0  0  0  0  0  0  0  0  0  0  0
    5.2326   -0.6250    0.0000 S   0  0  0  0  0  0  0  0  0  0  0  0
    2.3660    0.3261    0.0000 S   0  0  0  0  0  0  0  0  0  0  0  0
    5.2628    4.2617    0.0000 S   0  0  0  0  0  0  0  0  0  0  0  0
    3.9538    1.1351    0.0000 N   0  0  0  0  0  0  0  0  0  0  0  0
    3.6448    2.0861    0.0000 N   0  0  0  0  0  0  0  0  0  0  0  0
    3.6750   -0.6250    0.0000 N   0  0  0  0  0  0  0  0  0  0  0  0
    4.9538    1.1351    0.0000 C   0  0  3  0  0  0  0  0  0  0  0  0
    5.2628    2.0861    0.0000 C   0  0  0  0  0  0  0  0  0  0  0  0
    4.4538    2.6739    0.0000 C   0  0  0  0  0  0  0  0  0  0  0  0
    5.5416    0.3261    0.0000 C   0  0  0  0  0  0  0  0  0  0  0  0
    3.3660    0.3261    0.0000 C   0  0  0  0  0  0  0  0  0  0  0  0
    4.4538    3.6739    0.0000 C   0  0  0  0  0  0  0  0  0  0  0  0
    6.5416    0.3261    0.0000 C   0  0  0  0  0  0  0  0  0  0  0  0
    6.8506   -0.6250    0.0000 C   0  0  0  0  0  0  0  0  0  0  0  0
    3.6448    4.2617    0.0000 C   0  0  0  0  0  0  0  0  0  0  0  0
    2.8660   -1.2128    0.0000 C   0  0  0  0  0  0  0  0  0  0  0  0
    6.0416   -1.2128    0.0000 C   0  0  0  0  0  0  0  0  0  0  0  0
    2.0570   -0.6250    0.0000 C   0  0  0  0  0  0  0  0  0  0  0  0
    2.8660   -2.2128    0.0000 C   0  0  0  0  0  0  0  0  0  0  0  0
    3.9538    5.2128    0.0000 C   0  0  0  0  0  0  0  0  0  0  0  0
    4.9538    5.2128    0.0000 C   0  0  0  0  0  0  0  0  0  0  0  0
    3.7320   -2.7128    0.0000 C   0  0  0  0  0  0  0  0  0  0  0  0
    2.0000   -2.7128    0.0000 C   0  0  0  0  0  0  0  0  0  0  0  0
    3.7320   -3.7128    0.0000 C   0  0  0  0  0  0  0  0  0  0  0  0
    2.0000   -3.7128    0.0000 C   0  0  0  0  0  0  0  0  0  0  0  0
    2.8660   -4.2128    0.0000 C   0  0  0  0  0  0  0  0  0  0  0  0
    4.6723    0.5827    0.0000 H   0  0  0  0  0  0  0  0  0  0  0  0
    5.8292    1.8340    0.0000 H   0  0  0  0  0  0  0  0  0  0  0  0
    5.5728    2.6231    0.0000 H   0  0  0  0  0  0  0  0  0  0  0  0
    6.9060    0.8277    0.0000 H   0  0  0  0  0  0  0  0  0  0  0  0
    7.4403   -0.8166    0.0000 H   0  0  0  0  0  0  0  0  0  0  0  0
    3.0551    4.0701    0.0000 H   0  0  0  0  0  0  0  0  0  0  0  0
    6.0416   -1.8328    0.0000 H   0  0  0  0  0  0  0  0  0  0  0  0
    1.4674   -0.8166    0.0000 H   0  0  0  0  0  0  0  0  0  0  0  0
    3.5894    5.7144    0.0000 H   0  0  0  0  0  0  0  0  0  0  0  0
    5.3182    5.7144    0.0000 H   0  0  0  0  0  0  0  0  0  0  0  0
    4.2690   -2.4028    0.0000 H   0  0  0  0  0  0  0  0  0  0  0  0
    1.4631   -2.4028    0.0000 H   0  0  0  0  0  0  0  0  0  0  0  0
    4.2690   -4.0228    0.0000 H   0  0  0  0  0  0  0  0  0  0  0  0
    1.4631   -4.0228    0.0000 H   0  0  0  0  0  0  0  0  0  0  0  0
  1 27  1  0  0  0  0
  2 11  1  0  0  0  0
  2 18  1  0  0  0  0
  3 12  1  0  0  0  0
  3 19  1  0  0  0  0
  4 13  1  0  0  0  0
  4 22  1  0  0  0  0
  5  6  1  0  0  0  0
  5  8  1  0  0  0  0
  5 12  1  0  0  0  0
  6 10  2  0  0  0  0
  7 12  2  0  0  0  0
  7 17  1  0  0  0  0
  8  9  1  0  0  0  0
  8 11  1  0  0  0  0
  8 28  1  0  0  0  0
  9 10  1  0  0  0  0
  9 29  1  0  0  0  0
  9 30  1  0  0  0  0
 10 13  1  0  0  0  0
 11 14  2  0  0  0  0
 13 16  2  0  0  0  0
 14 15  1  0  0  0  0
 14 31  1  0  0  0  0
 15 18  2  0  0  0  0
 15 32  1  0  0  0  0
 16 21  1  0  0  0  0
 16 33  1  0  0  0  0
 17 19  2  0  0  0  0
 17 20  1  0  0  0  0
 18 34  1  0  0  0  0
 19 35  1  0  0  0  0
 20 23  2  0  0  0  0
 20 24  1  0  0  0  0
 21 22  2  0  0  0  0
 21 36  1  0  0  0  0
 22 37  1  0  0  0  0
 23 25  1  0  0  0  0
 23 38  1  0  0  0  0
 24 26  2  0  0  0  0
 24 39  1  0  0  0  0
 25 27  2  0  0  0  0
 25 40  1  0  0  0  0
 26 27  1  0  0  0  0
 26 41  1  0  0  0  0
M  END
> <PUBCHEM_COMPOUND_CID>
45151573

> <PUBCHEM_COMPOUND_CANONICALIZED>
1

> <PUBCHEM_CACTVS_COMPLEXITY>
555

> <PUBCHEM_CACTVS_HBOND_ACCEPTOR>
6

> <PUBCHEM_CACTVS_HBOND_DONOR>
0

> <PUBCHEM_CACTVS_ROTATABLE_BOND>
4

> <PUBCHEM_CACTVS_SUBSKEYS>
AAADccB7AABgEAAAAAAAAAAAAAAAAWJEiAAwAAAAAAAAAAAB/AAAHARIAAABrCjFXgSxkZIIEAikAyRiZACT8KlhCjxdiDw4JLiIIKKgmRGEIAhoiAIoijcQgIAOAgAAAAAAAAAEAAAAAAAAAAAAAAAAAA==

> <PUBCHEM_IUPAC_OPENEYE_NAME>
2-[3,5-bis(2-thienyl)-3,4-dihydropyrazol-2-yl]-4-(4-bromophenyl)thiazole

> <PUBCHEM_IUPAC_CAS_NAME>
4-(4-bromophenyl)-2-(3,5-dithiophen-2-yl-3,4-dihydropyrazol-2-yl)thiazole

> <PUBCHEM_IUPAC_NAME_MARKUP>
4-(4-bromophenyl)-2-(3,5-dithiophen-2-yl-3,4-dihydropyrazol-2-yl)-1,3-thiazole

> <PUBCHEM_IUPAC_NAME>
4-(4-bromophenyl)-2-(3,5-dithiophen-2-yl-3,4-dihydropyrazol-2-yl)-1,3-thiazole

> <PUBCHEM_IUPAC_SYSTEMATIC_NAME>
4-(4-bromophenyl)-2-(3,5-dithiophen-2-yl-3,4-dihydropyrazol-2-yl)-1,3-thiazole

> <PUBCHEM_IUPAC_TRADITIONAL_NAME>
2-[3,5-bis(2-thienyl)-2-pyrazolin-1-yl]-4-(4-bromophenyl)thiazole

> <PUBCHEM_IUPAC_INCHI>
InChI=1S/C20H14BrN3S3/c21-14-7-5-13(6-8-14)16-12-27-20(22-16)24-17(19-4-2-10-26-19)11-15(23-24)18-3-1-9-25-18/h1-10,12,17H,11H2

> <PUBCHEM_IUPAC_INCHIKEY>
OARKGSIKLJDXSN-UHFFFAOYSA-N

> <PUBCHEM_XLOGP3_AA>
6.5

> <PUBCHEM_EXACT_MASS>
470.95332

> <PUBCHEM_MOLECULAR_FORMULA>
C20H14BrN3S3

> <PUBCHEM_MOLECULAR_WEIGHT>
472.5

> <PUBCHEM_CACTVS_TPSA>
113

> <PUBCHEM_MONOISOTOPIC_WEIGHT>
470.95332

> <PUBCHEM_TOTAL_CHARGE>
0

> <PUBCHEM_HEAVY_ATOM_COUNT>
27

> <PUBCHEM_ATOM_DEF_STEREO_COUNT>
0

> <PUBCHEM_ATOM_UDEF_STEREO_COUNT>
1

> <PUBCHEM_BOND_DEF_STEREO_COUNT>
0

> <PUBCHEM_BOND_UDEF_STEREO_COUNT>
0

> <PUBCHEM_ISOTOPIC_ATOM_COUNT>
0

> <PUBCHEM_COMPONENT_COUNT>
1

> <PUBCHEM_CACTVS_TAUTO_COUNT>
-1

> <PUBCHEM_COORDINATE_TYPE>
1
5
255

> <PUBCHEM_BONDANNOTATIONS>
11  14  8
13  16  8
14  15  8
15  18  8
16  21  8
17  19  8
2  11  8
2  18  8
20  23  8
20  24  8
21  22  8
23  25  8
24  26  8
25  27  8
26  27  8
3  12  8
3  19  8
4  13  8
4  22  8
7  12  8
7  17  8
8  11  3

$$$$
66979075
  -OEChem-07082511212D

 30 31  0     0  0  0  0  0  0999 V2000
    7.1962    2.9400    0.0000 O   0  0  0  0  0  0  0  0  0  0  0  0
    5.4641    2.9400    0.0000 O   0  0  0  0  0  0  0  0  0  0  0  0
    4.5981   -1.5600    0.0000 N   0  0  0  0  0  0  0  0  0  0  0  0
    4.5981   -0.5600    0.0000 C   0  0  0  0  0  0  0  0  0  0  0  0
    5.4641   -0.0600    0.0000 C   0  0  0  0  0  0  0  0  0  0  0  0
    5.4641    0.9400    0.0000 C   0  0  0  0  0  0  0  0  0  0  0  0
    3.7321   -2.0600    0.0000 C   0  0  0  0  0  0  0  0  0  0  0  0
    6.3301   -0.5600    0.0000 C   0  0  0  0  0  0  0  0  0  0  0  0
    6.3301    1.4400    0.0000 C   0  0  0  0  0  0  0  0  0  0  0  0
    7.1962   -0.0600    0.0000 C   0  0  0  0  0  0  0  0  0  0  0  0
    7.1962    0.9400    0.0000 C   0  0  0  0  0  0  0  0  0  0  0  0
    2.8660   -1.5600    0.0000 C   0  0  0  0  0  0  0  0  0  0  0  0
    3.7321   -3.0600    0.0000 C   0  0  0  0  0  0  0  0  0  0  0  0
    2.0000   -2.0600    0.0000 C   0  0  0  0  0  0  0  0  0  0  0  0
    2.8660   -3.5600    0.0000 C   0  0  0  0  0  0  0  0  0  0  0  0
    2.0000   -3.0600    0.0000 C   0  0  0  0  0  0  0  0  0  0  0  0
    6.3301    2.4400    0.0000 C   0  0  0  0  0  0  0  0  0  0  0  0
    4.3860    0.0226    0.0000 H   0  0  0  0  0  0  0  0  0  0  0  0
    3.9875   -0.6677    0.0000 H   0  0  0  0  0  0  0  0  0  0  0  0
    5.1350   -1.8700    0.0000 H   0  0  0  0  0  0  0  0  0  0  0  0
    4.9272    1.2500    0.0000 H   0  0  0  0  0  0  0  0  0  0  0  0
    6.3301   -1.1800    0.0000 H   0  0  0  0  0  0  0  0  0  0  0  0
    7.7331   -0.3700    0.0000 H   0  0  0  0  0  0  0  0  0  0  0  0
    7.7331    1.2500    0.0000 H   0  0  0  0  0  0  0  0  0  0  0  0
    2.8660   -0.9400    0.0000 H   0  0  0  0  0  0  0  0  0  0  0  0
    4.2690   -3.3700    0.0000 H   0  0  0  0  0  0  0  0  0  0  0  0
    1.4631   -1.7500    0.0000 H   0  0  0  0  0  0  0  0  0  0  0  0
    2.8660   -4.1800    0.0000 H   0  0  0  0  0  0  0  0  0  0  0  0
    1.4631   -3.3700    0.0000 H   0  0  0  0  0  0  0  0  0  0  0  0
    7.1962    3.5600    0.0000 H   0  0  0  0  0  0  0  0  0  0  0  0
  1 17  1  0  0  0  0
  1 30  1  0  0  0  0
  2 17  2  0  0  0  0
  3  4  1  0  0  0  0
  3  7  1  0  0  0  0
  3 20  1  0  0  0  0
  4  5  1  0  0  0  0
  4 18  1  0  0  0  0
  4 19  1  0  0  0  0
  5  6  2  0  0  0  0
  5  8  1  0  0  0  0
  6  9  1  0  0  0  0
  6 21  1  0  0  0  0
  7 12  2  0  0  0  0
  7 13  1  0  0  0  0
  8 10  2  0  0  0  0
  8 22  1  0  0  0  0
  9 11  2  0  0  0  0
  9 17  1  0  0  0  0
 10 11  1  0  0  0  0
 10 23  1  0  0  0  0
 11 24  1  0  0  0  0
 12 14  1  0  0  0  0
 12 25  1  0  0  0  0
 13 15  2  0  0  0  0
 13 26  1  0  0  0  0
 14 16  2  0  0  0  0
 14 27  1  0  0  0  0
 15 16  1  0  0  0  0
 15 28  1  0  0  0  0
 16 29  1  0  0  0  0
M  END
> <PUBCHEM_COMPOUND_CID>
66979075

> <PUBCHEM_COMPOUND_CANONICALIZED>
1

> <PUBCHEM_CACTVS_COMPLEXITY>
249

> <PUBCHEM_CACTVS_HBOND_ACCEPTOR>
3

> <PUBCHEM_CACTVS_HBOND_DONOR>
2

> <PUBCHEM_CACTVS_ROTATABLE_BOND>
4

> <PUBCHEM_CACTVS_SUBSKEYS>
AAADccByMAAAAAAAAAAAAAAAAAAAAAAAAAAwYAAAAAAAAAABQAAAHgAQCAAADAjBmAQwyILAAgCIAiTSSACCAAAlAgAIiIEIbMgIJjLAlZGEcQhk0AHI2YeY2WKOAAACAAAAAAAAAAQAAAAAAAAAAAAAAA==

> <PUBCHEM_IUPAC_OPENEYE_NAME>
3-(anilinomethyl)benzoic acid

> <PUBCHEM_IUPAC_CAS_NAME>
3-(anilinomethyl)benzoic acid

> <PUBCHEM_IUPAC_NAME_MARKUP>
3-(anilinomethyl)benzoic acid

> <PUBCHEM_IUPAC_NAME>
3-(anilinomethyl)benzoic acid

> <PUBCHEM_IUPAC_SYSTEMATIC_NAME>
3-(phenylazanylmethyl)benzoic acid

> <PUBCHEM_IUPAC_TRADITIONAL_NAME>
3-(anilinomethyl)benzoic acid

> <PUBCHEM_IUPAC_INCHI>
InChI=1S/C14H13NO2/c16-14(17)12-6-4-5-11(9-12)10-15-13-7-2-1-3-8-13/h1-9,15H,10H2,(H,16,17)

> <PUBCHEM_IUPAC_INCHIKEY>
OYVGWXUICDQOKV-UHFFFAOYSA-N

> <PUBCHEM_XLOGP3>
3.2

> <PUBCHEM_EXACT_MASS>
227.094628657

> <PUBCHEM_MOLECULAR_FORMULA>
C14H13NO2

> <PUBCHEM_MOLECULAR_WEIGHT>
227.26

> <PUBCHEM_CACTVS_TPSA>
49.3

> <PUBCHEM_MONOISOTOPIC_WEIGHT>
227.094628657

> <PUBCHEM_TOTAL_CHARGE>
0

> <PUBCHEM_HEAVY_ATOM_COUNT>
17

> <PUBCHEM_ATOM_DEF_STEREO_COUNT>
0

> <PUBCHEM_ATOM_UDEF_STEREO_COUNT>
0

> <PUBCHEM_BOND_DEF_STEREO_COUNT>
0

> <PUBCHEM_BOND_UDEF_STEREO_COUNT>
0

> <PUBCHEM_ISOTOPIC_ATOM_COUNT>
0

> <PUBCHEM_COMPONENT_COUNT>
1

> <PUBCHEM_CACTVS_TAUTO_COUNT>
-1

> <PUBCHEM_COORDINATE_TYPE>
1
5
255

> <PUBCHEM_BONDANNOTATIONS>
10  11  8
12  14  8
13  15  8
14  16  8
15  16  8
5  6  8
5  8  8
6  9  8
7  12  8
7  13  8
8  10  8
9  11  8

$$$$
155543331
  -OEChem-07082511212D

 50 52  0     0  0  0  0  0  0999 V2000
    6.8671    1.3093    0.0000 O   0  0  0  0  0  0  0  0  0  0  0  0
   10.0542    2.8089    0.0000 O   0  0  0  0  0  0  0  0  0  0  0  0
    2.5369    0.8093    0.0000 O   0  0  0  0  0  0  0  0  0  0  0  0
    3.4030    2.3093    0.0000 O   0  0  0  0  0  0  0  0  0  0  0  0
   10.4114   -0.4954    0.0000 N   0  0  0  0  0  0  0  0  0  0  0  0
    9.4651   -0.1907    0.0000 C   0  0  0  0  0  0  0  0  0  0  0  0
    9.4651    0.8093    0.0000 C   0  0  0  0  0  0  0  0  0  0  0  0
   10.9950    0.3093    0.0000 C   0  0  0  0  0  0  0  0  0  0  0  0
   10.4114    1.1141    0.0000 C   0  0  0  0  0  0  0  0  0  0  0  0
   10.7220   -1.4459    0.0000 C   0  0  0  0  0  0  0  0  0  0  0  0
    8.5991    1.3093    0.0000 C   0  0  0  0  0  0  0  0  0  0  0  0
    8.5991   -0.6907    0.0000 C   0  0  0  0  0  0  0  0  0  0  0  0
   11.9950    0.3093    0.0000 C   0  0  0  0  0  0  0  0  0  0  0  0
    7.7331    0.8093    0.0000 C   0  0  0  0  0  0  0  0  0  0  0  0
   11.7005   -1.6521    0.0000 C   0  0  0  0  0  0  0  0  0  0  0  0
   10.7220    2.0646    0.0000 C   0  0  0  0  0  0  0  0  0  0  0  0
    7.7331   -0.1907    0.0000 C   0  0  0  0  0  0  0  0  0  0  0  0
   12.0112   -2.6027    0.0000 C   0  0  0  0  0  0  0  0  0  0  0  0
   12.3684   -0.9078    0.0000 C   0  0  0  0  0  0  0  0  0  0  0  0
   11.7005    2.2708    0.0000 C   0  0  0  0  0  0  0  0  0  0  0  0
    6.0010    0.8093    0.0000 C   0  0  0  0  0  0  0  0  0  0  0  0
    5.1350    1.3093    0.0000 C   0  0  0  0  0  0  0  0  0  0  0  0
   12.9897   -2.8089    0.0000 C   0  0  0  0  0  0  0  0  0  0  0  0
   13.3469   -1.1141    0.0000 C   0  0  0  0  0  0  0  0  0  0  0  0
    4.2690    0.8093    0.0000 C   0  0  0  0  0  0  0  0  0  0  0  0
   13.6575   -2.0646    0.0000 C   0  0  0  0  0  0  0  0  0  0  0  0
    3.4030    1.3093    0.0000 C   0  0  0  0  0  0  0  0  0  0  0  0
   10.1082   -1.5333    0.0000 H   0  0  0  0  0  0  0  0  0  0  0  0
   10.7015   -2.0656    0.0000 H   0  0  0  0  0  0  0  0  0  0  0  0
    8.5991    1.9293    0.0000 H   0  0  0  0  0  0  0  0  0  0  0  0
    8.5991   -1.3107    0.0000 H   0  0  0  0  0  0  0  0  0  0  0  0
   11.9950   -0.3107    0.0000 H   0  0  0  0  0  0  0  0  0  0  0  0
   12.6150    0.3093    0.0000 H   0  0  0  0  0  0  0  0  0  0  0  0
   11.9950    0.9293    0.0000 H   0  0  0  0  0  0  0  0  0  0  0  0
    7.1962   -0.5007    0.0000 H   0  0  0  0  0  0  0  0  0  0  0  0
   11.5971   -3.0641    0.0000 H   0  0  0  0  0  0  0  0  0  0  0  0
   12.1758   -0.3185    0.0000 H   0  0  0  0  0  0  0  0  0  0  0  0
    5.6025    0.3344    0.0000 H   0  0  0  0  0  0  0  0  0  0  0  0
    6.3996    0.3344    0.0000 H   0  0  0  0  0  0  0  0  0  0  0  0
   11.8284    1.6641    0.0000 H   0  0  0  0  0  0  0  0  0  0  0  0
   12.3072    2.3987    0.0000 H   0  0  0  0  0  0  0  0  0  0  0  0
   11.5727    2.8775    0.0000 H   0  0  0  0  0  0  0  0  0  0  0  0
    5.5335    1.7843    0.0000 H   0  0  0  0  0  0  0  0  0  0  0  0
    4.7365    1.7843    0.0000 H   0  0  0  0  0  0  0  0  0  0  0  0
   13.1823   -3.3982    0.0000 H   0  0  0  0  0  0  0  0  0  0  0  0
   13.7609   -0.6526    0.0000 H   0  0  0  0  0  0  0  0  0  0  0  0
    3.8705    0.3344    0.0000 H   0  0  0  0  0  0  0  0  0  0  0  0
    4.6675    0.3344    0.0000 H   0  0  0  0  0  0  0  0  0  0  0  0
   14.2642   -2.1924    0.0000 H   0  0  0  0  0  0  0  0  0  0  0  0
    2.0000    1.1193    0.0000 H   0  0  0  0  0  0  0  0  0  0  0  0
  1 14  1  0  0  0  0
  1 21  1  0  0  0  0
  2 16  2  0  0  0  0
  3 27  1  0  0  0  0
  3 50  1  0  0  0  0
  4 27  2  0  0  0  0
  5  6  1  0  0  0  0
  5  8  1  0  0  0  0
  5 10  1  0  0  0  0
  6  7  2  0  0  0  0
  6 12  1  0  0  0  0
  7  9  1  0  0  0  0
  7 11  1  0  0  0  0
  8  9  2  0  0  0  0
  8 13  1  0  0  0  0
  9 16  1  0  0  0  0
 10 15  1  0  0  0  0
 10 28  1  0  0  0  0
 10 29  1  0  0  0  0
 11 14  2  0  0  0  0
 11 30  1  0  0  0  0
 12 17  2  0  0  0  0
 12 31  1  0  0  0  0
 13 32  1  0  0  0  0
 13 33  1  0  0  0  0
 13 34  1  0  0  0  0
 14 17  1  0  0  0  0
 15 18  2  0  0  0  0
 15 19  1  0  0  0  0
 16 20  1  0  0  0  0
 17 35  1  0  0  0  0
 18 23  1  0  0  0  0
 18 36  1  0  0  0  0
 19 24  2  0  0  0  0
 19 37  1  0  0  0  0
 20 40  1  0  0  0  0
 20 41  1  0  0  0  0
 20 42  1  0  0  0  0
 21 22  1  0  0  0  0
 21 38  1  0  0  0  0
 21 39  1  0  0  0  0
 22 25  1  0  0  0  0
 22 43  1  0  0  0  0
 22 44  1  0  0  0  0
 23 26  2  0  0  0  0
 23 45  1  0  0  0  0
 24 26  1  0  0  0  0
 24 46  1  0  0  0  0
 25 27  1  0  0  0  0
 25 47  1  0  0  0  0
 25 48  1  0  0  0  0
 26 49  1  0  0  0  0
M  END
> <PUBCHEM_COMPOUND_CID>
155543331

> <PUBCHEM_COMPOUND_CANONICALIZED>
1

> <PUBCHEM_CACTVS_COMPLEXITY>
516

> <PUBCHEM_CACTVS_HBOND_ACCEPTOR>
4

> <PUBCHEM_CACTVS_HBOND_DONOR>
1

> <PUBCHEM_CACTVS_ROTATABLE_BOND>
8

> <PUBCHEM_CACTVS_SUBSKEYS>
AAADceB6OAAAAAAAAAAAAAAAAAAAAWAAAAAwYAAAAAAAAFgB9AAAHgAACAAADAzhngYyzvMMFgCoA6TyTACCiCAlIiAI2CE+bNgMJvrEtZuGeajkwBHI6Uf+3PPOgEABAAACAAAAgAIAAAQAAAAAAAAAAA==

> <PUBCHEM_IUPAC_OPENEYE_NAME>
4-(3-acetyl-1-benzyl-2-methyl-indol-5-yl)oxybutanoic acid

> <PUBCHEM_IUPAC_CAS_NAME>
4-[[3-acetyl-2-methyl-1-(phenylmethyl)-5-indolyl]oxy]butanoic acid

> <PUBCHEM_IUPAC_NAME_MARKUP>
4-(3-acetyl-1-benzyl-2-methylindol-5-yl)oxybutanoic acid

> <PUBCHEM_IUPAC_NAME>
4-(3-acetyl-1-benzyl-2-methylindol-5-yl)oxybutanoic acid

> <PUBCHEM_IUPAC_SYSTEMATIC_NAME>
4-[3-ethanoyl-2-methyl-1-(phenylmethyl)indol-5-yl]oxybutanoic acid

> <PUBCHEM_IUPAC_TRADITIONAL_NAME>
4-(3-acetyl-1-benzyl-2-methyl-indol-5-yl)oxybutyric acid

> <PUBCHEM_IUPAC_INCHI>
InChI=1S/C22H23NO4/c1-15-22(16(2)24)19-13-18(27-12-6-9-21(25)26)10-11-20(19)23(15)14-17-7-4-3-5-8-17/h3-5,7-8,10-11,13H,6,9,12,14H2,1-2H3,(H,25,26)

> <PUBCHEM_IUPAC_INCHIKEY>
AJGIAOZUTGDMKP-UHFFFAOYSA-N

> <PUBCHEM_XLOGP3_AA>
3.5

> <PUBCHEM_EXACT_MASS>
365.16270821

> <PUBCHEM_MOLECULAR_FORMULA>
C22H23NO4

> <PUBCHEM_MOLECULAR_WEIGHT>
365.4

> <PUBCHEM_CACTVS_TPSA>
68.5

> <PUBCHEM_MONOISOTOPIC_WEIGHT>
365.16270821

> <PUBCHEM_TOTAL_CHARGE>
0

> <PUBCHEM_HEAVY_ATOM_COUNT>
27

> <PUBCHEM_ATOM_DEF_STEREO_COUNT>
0

> <PUBCHEM_ATOM_UDEF_STEREO_COUNT>
0

> <PUBCHEM_BOND_DEF_STEREO_COUNT>
0

> <PUBCHEM_BOND_UDEF_STEREO_COUNT>
0

> <PUBCHEM_ISOTOPIC_ATOM_COUNT>
0

> <PUBCHEM_COMPONENT_COUNT>
1

> <PUBCHEM_CACTVS_TAUTO_COUNT>
-1

> <PUBCHEM_COORDINATE_TYPE>
1
5
255

> <PUBCHEM_BONDANNOTATIONS>
11  14  8
12  17  8
14  17  8
15  18  8
15  19  8
18  23  8
19  24  8
23  26  8
24  26  8
5  6  8
5  8  8
6  12  8
6  7  8
7  11  8
7  9  8
8  9  8

$$$$
165412809
  -OEChem-07082511212D

 47 49  0     0  0  0  0  0  0999 V2000
   10.6766   -1.7623    0.0000 O   0  0  0  0  0  0  0  0  0  0  0  0
    8.9282   -1.7277    0.0000 O   0  0  0  0  0  0  0  0  0  0  0  0
   12.4583    1.2964    0.0000 O   0  0  0  0  0  0  0  0  0  0  0  0
    7.1962    2.2723    0.0000 O   0  0  0  0  0  0  0  0  0  0  0  0
    6.3301    0.7723    0.0000 N   0  0  0  0  0  0  0  0  0  0  0  0
    9.7942   -0.2277    0.0000 C   0  0  0  0  0  0  0  0  0  0  0  0
    9.7942    0.7723    0.0000 C   0  0  0  0  0  0  0  0  0  0  0  0
    8.0622    0.7723    0.0000 C   0  0  0  0  0  0  0  0  0  0  0  0
    8.9282    1.2723    0.0000 C   0  0  0  0  0  0  0  0  0  0  0  0
    8.9282   -0.7277    0.0000 C   0  0  0  0  0  0  0  0  0  0  0  0
   10.6882   -0.7624    0.0000 C   0  0  0  0  0  0  0  0  0  0  0  0
    8.0622   -0.2277    0.0000 C   0  0  0  0  0  0  0  0  0  0  0  0
   10.6882    1.3070    0.0000 C   0  0  0  0  0  0  0  0  0  0  0  0
    5.4641    1.2723    0.0000 C   0  0  0  0  0  0  0  0  0  0  0  0
   11.5942    0.7931    0.0000 C   0  0  0  0  0  0  0  0  0  0  0  0
    7.1962    1.2723    0.0000 C   0  0  0  0  0  0  0  0  0  0  0  0
   11.5942   -0.2485    0.0000 C   0  0  0  0  0  0  0  0  0  0  0  0
    4.5981    0.7723    0.0000 C   0  0  0  0  0  0  0  0  0  0  0  0
    4.5981   -0.2277    0.0000 C   0  0  0  0  0  0  0  0  0  0  0  0
    3.7320    1.2723    0.0000 C   0  0  0  0  0  0  0  0  0  0  0  0
    2.8660   -0.2277    0.0000 C   0  0  0  0  0  0  0  0  0  0  0  0
    3.7320   -0.7277    0.0000 C   0  0  0  0  0  0  0  0  0  0  0  0
    2.8660    0.7723    0.0000 C   0  0  0  0  0  0  0  0  0  0  0  0
    2.0000   -0.7277    0.0000 C   0  0  0  0  0  0  0  0  0  0  0  0
   11.5368   -2.2723    0.0000 C   0  0  0  0  0  0  0  0  0  0  0  0
   13.3263    0.7998    0.0000 C   0  0  0  0  0  0  0  0  0  0  0  0
    8.9282    1.8923    0.0000 H   0  0  0  0  0  0  0  0  0  0  0  0
    7.5252   -0.5377    0.0000 H   0  0  0  0  0  0  0  0  0  0  0  0
   10.6810    1.9269    0.0000 H   0  0  0  0  0  0  0  0  0  0  0  0
    5.8626    1.7472    0.0000 H   0  0  0  0  0  0  0  0  0  0  0  0
    5.0656    1.7472    0.0000 H   0  0  0  0  0  0  0  0  0  0  0  0
   12.1300   -0.5606    0.0000 H   0  0  0  0  0  0  0  0  0  0  0  0
    6.3301    0.1523    0.0000 H   0  0  0  0  0  0  0  0  0  0  0  0
    5.1350   -0.5377    0.0000 H   0  0  0  0  0  0  0  0  0  0  0  0
    3.7320    1.8923    0.0000 H   0  0  0  0  0  0  0  0  0  0  0  0
    3.7320   -1.3477    0.0000 H   0  0  0  0  0  0  0  0  0  0  0  0
    2.3291    1.0823    0.0000 H   0  0  0  0  0  0  0  0  0  0  0  0
    8.3913   -2.0377    0.0000 H   0  0  0  0  0  0  0  0  0  0  0  0
    1.6900   -0.1908    0.0000 H   0  0  0  0  0  0  0  0  0  0  0  0
    1.4631   -1.0377    0.0000 H   0  0  0  0  0  0  0  0  0  0  0  0
    2.3100   -1.2646    0.0000 H   0  0  0  0  0  0  0  0  0  0  0  0
   11.2206   -2.8056    0.0000 H   0  0  0  0  0  0  0  0  0  0  0  0
   12.0701   -2.5885    0.0000 H   0  0  0  0  0  0  0  0  0  0  0  0
   11.8530   -1.7390    0.0000 H   0  0  0  0  0  0  0  0  0  0  0  0
   13.0183    0.2617    0.0000 H   0  0  0  0  0  0  0  0  0  0  0  0
   13.8644    0.4919    0.0000 H   0  0  0  0  0  0  0  0  0  0  0  0
   13.6342    1.3379    0.0000 H   0  0  0  0  0  0  0  0  0  0  0  0
  1 11  1  0  0  0  0
  1 25  1  0  0  0  0
  2 10  1  0  0  0  0
  2 38  1  0  0  0  0
  3 15  1  0  0  0  0
  3 26  1  0  0  0  0
  4 16  2  0  0  0  0
  5 14  1  0  0  0  0
  5 16  1  0  0  0  0
  5 33  1  0  0  0  0
  6  7  1  0  0  0  0
  6 10  2  0  0  0  0
  6 11  1  0  0  0  0
  7  9  2  0  0  0  0
  7 13  1  0  0  0  0
  8  9  1  0  0  0  0
  8 12  2  0  0  0  0
  8 16  1  0  0  0  0
  9 27  1  0  0  0  0
 10 12  1  0  0  0  0
 11 17  2  0  0  0  0
 12 28  1  0  0  0  0
 13 15  2  0  0  0  0
 13 29  1  0  0  0  0
 14 18  1  0  0  0  0
 14 30  1  0  0  0  0
 14 31  1  0  0  0  0
 15 17  1  0  0  0  0
 17 32  1  0  0  0  0
 18 19  2  0  0  0  0
 18 20  1  0  0  0  0
 19 22  1  0  0  0  0
 19 34  1  0  0  0  0
 20 23  2  0  0  0  0
 20 35  1  0  0  0  0
 21 22  2  0  0  0  0
 21 23  1  0  0  0  0
 21 24  1  0  0  0  0
 22 36  1  0  0  0  0
 23 37  1  0  0  0  0
 24 39  1  0  0  0  0
 24 40  1  0  0  0  0
 24 41  1  0  0  0  0
 25 42  1  0  0  0  0
 25 43  1  0  0  0  0
 25 44  1  0  0  0  0
 26 45  1  0  0  0  0
 26 46  1  0  0  0  0
 26 47  1  0  0  0  0
M  END
> <PUBCHEM_COMPOUND_CID>
165412809

> <PUBCHEM_COMPOUND_CANONICALIZED>
1

> <PUBCHEM_CACTVS_COMPLEXITY>
463

> <PUBCHEM_CACTVS_HBOND_ACCEPTOR>
4

> <PUBCHEM_CACTVS_HBOND_DONOR>
2

> <PUBCHEM_CACTVS_ROTATABLE_BOND>
5

> <PUBCHEM_CACTVS_SUBSKEYS>
AAADceB6OAAAAAAAAAAAAAAAAAAAAAAAAAAwYMAAAAAAAADBVAAAHgAQCAAADATBmAYyBsLABgCIAiFSEACCCAAkIAAIiIEODMgMJzKGtRuEcShlxhWIuYe66PyO4AADCAAYAADAAAYQADAAAAAAAAAAAA==

> <PUBCHEM_IUPAC_OPENEYE_NAME>
4-hydroxy-5,7-dimethoxy-N-(p-tolylmethyl)naphthalene-2-carboxamide

> <PUBCHEM_IUPAC_CAS_NAME>
4-hydroxy-5,7-dimethoxy-N-[(4-methylphenyl)methyl]-2-naphthalenecarboxamide

> <PUBCHEM_IUPAC_NAME_MARKUP>
4-hydroxy-5,7-dimethoxy-<I>N</I>-[(4-methylphenyl)methyl]naphthalene-2-carboxamide

> <PUBCHEM_IUPAC_NAME>
4-hydroxy-5,7-dimethoxy-N-[(4-methylphenyl)methyl]naphthalene-2-carboxamide

> <PUBCHEM_IUPAC_SYSTEMATIC_NAME>
5,7-dimethoxy-N-[(4-methylphenyl)methyl]-4-oxidanyl-naphthalene-2-carboxamide

> <PUBCHEM_IUPAC_TRADITIONAL_NAME>
4-hydroxy-5,7-dimethoxy-N-(4-methylbenzyl)-2-naphthamide

> <PUBCHEM_IUPAC_INCHI>
InChI=1S/C21H21NO4/c1-13-4-6-14(7-5-13)12-22-21(24)16-8-15-9-17(25-2)11-19(26-3)20(15)18(23)10-16/h4-11,23H,12H2,1-3H3,(H,22,24)

> <PUBCHEM_IUPAC_INCHIKEY>
HNROAMNVJXQCMU-UHFFFAOYSA-N

> <PUBCHEM_XLOGP3_AA>
3.9

> <PUBCHEM_EXACT_MASS>
351.14705815

> <PUBCHEM_MOLECULAR_FORMULA>
C21H21NO4

> <PUBCHEM_MOLECULAR_WEIGHT>
351.4

> <PUBCHEM_CACTVS_TPSA>
67.8

> <PUBCHEM_MONOISOTOPIC_WEIGHT>
351.14705815

> <PUBCHEM_TOTAL_CHARGE>
0

> <PUBCHEM_HEAVY_ATOM_COUNT>
26

> <PUBCHEM_ATOM_DEF_STEREO_COUNT>
0

> <PUBCHEM_ATOM_UDEF_STEREO_COUNT>
0

> <PUBCHEM_BOND_DEF_STEREO_COUNT>
0

> <PUBCHEM_BOND_UDEF_STEREO_COUNT>
0

> <PUBCHEM_ISOTOPIC_ATOM_COUNT>
0

> <PUBCHEM_COMPONENT_COUNT>
1

> <PUBCHEM_CACTVS_TAUTO_COUNT>
-1

> <PUBCHEM_COORDINATE_TYPE>
1
5
255

> <PUBCHEM_BONDANNOTATIONS>
10  12  8
11  17  8
13  15  8
15  17  8
18  19  8
18  20  8
19  22  8
20  23  8
21  22  8
21  23  8
6  10  8
6  11  8
6  7  8
7  13  8
7  9  8
8  12  8
8  9  8

$$$$
165412706
  -OEChem-07082511212D

 33 35  0     0  0  0  0  0  0999 V2000
    8.3834    2.7079    0.0000 Br  0  0  0  0  0  0  0  0  0  0  0  0
    5.2435   -2.7079    0.0000 S   0  0  0  0  0  0  0  0  0  0  0  0
    5.6036    0.6043    0.0000 O   0  0  0  0  0  0  0  0  0  0  0  0
    2.0000    0.4849    0.0000 O   0  0  0  0  0  0  0  0  0  0  0  0
    6.1945   -1.3989    0.0000 N   0  0  0  0  0  0  0  0  0  0  0  0
    7.1407   -2.7036    0.0000 N   0  0  0  0  0  0  0  0  0  0  0  0
    3.9563    0.0691    0.0000 N   0  0  0  0  0  0  0  0  0  0  0  0
    3.6473    1.0201    0.0000 N   0  0  0  0  0  0  0  0  0  0  0  0
    7.1407   -1.0942    0.0000 C   0  0  0  0  0  0  0  0  0  0  0  0
    5.2435   -1.0899    0.0000 C   0  0  0  0  0  0  0  0  0  0  0  0
    6.1945   -2.3989    0.0000 C   0  0  0  0  0  0  0  0  0  0  0  0
    7.4514   -0.1436    0.0000 C   0  0  0  0  0  0  0  0  0  0  0  0
    7.7244   -1.8989    0.0000 C   0  0  0  0  0  0  0  0  0  0  0  0
    4.6557   -1.8989    0.0000 C   0  0  0  0  0  0  0  0  0  0  0  0
    4.9344   -0.1388    0.0000 C   0  0  0  0  0  0  0  0  0  0  0  0
    8.4299    0.0626    0.0000 C   0  0  0  0  0  0  0  0  0  0  0  0
    6.7836    0.6007    0.0000 C   0  0  0  0  0  0  0  0  0  0  0  0
    8.7406    1.0131    0.0000 C   0  0  0  0  0  0  0  0  0  0  0  0
    7.0942    1.5512    0.0000 C   0  0  0  0  0  0  0  0  0  0  0  0
    8.0727    1.7574    0.0000 C   0  0  0  0  0  0  0  0  0  0  0  0
    2.6691    1.2281    0.0000 C   0  0  0  0  0  0  0  0  0  0  0  0
    2.3601    2.1791    0.0000 C   0  0  0  0  0  0  0  0  0  0  0  0
    8.3444   -1.8989    0.0000 H   0  0  0  0  0  0  0  0  0  0  0  0
    4.0357   -1.8989    0.0000 H   0  0  0  0  0  0  0  0  0  0  0  0
    8.8440   -0.3989    0.0000 H   0  0  0  0  0  0  0  0  0  0  0  0
    6.1769    0.4728    0.0000 H   0  0  0  0  0  0  0  0  0  0  0  0
    9.3472    1.1410    0.0000 H   0  0  0  0  0  0  0  0  0  0  0  0
    6.6802    2.0126    0.0000 H   0  0  0  0  0  0  0  0  0  0  0  0
    3.5414   -0.3917    0.0000 H   0  0  0  0  0  0  0  0  0  0  0  0
    4.0621    1.4809    0.0000 H   0  0  0  0  0  0  0  0  0  0  0  0
    2.9498    2.3707    0.0000 H   0  0  0  0  0  0  0  0  0  0  0  0
    2.1685    2.7688    0.0000 H   0  0  0  0  0  0  0  0  0  0  0  0
    1.7705    1.9875    0.0000 H   0  0  0  0  0  0  0  0  0  0  0  0
  1 20  1  0  0  0  0
  2 11  1  0  0  0  0
  2 14  1  0  0  0  0
  3 15  2  0  0  0  0
  4 21  2  0  0  0  0
  5  9  1  0  0  0  0
  5 10  1  0  0  0  0
  5 11  1  0  0  0  0
  6 11  2  0  0  0  0
  6 13  1  0  0  0  0
  7  8  1  0  0  0  0
  7 15  1  0  0  0  0
  7 29  1  0  0  0  0
  8 21  1  0  0  0  0
  8 30  1  0  0  0  0
  9 12  1  0  0  0  0
  9 13  2  0  0  0  0
 10 14  2  0  0  0  0
 10 15  1  0  0  0  0
 12 16  2  0  0  0  0
 12 17  1  0  0  0  0
 13 23  1  0  0  0  0
 14 24  1  0  0  0  0
 16 18  1  0  0  0  0
 16 25  1  0  0  0  0
 17 19  2  0  0  0  0
 17 26  1  0  0  0  0
 18 20  2  0  0  0  0
 18 27  1  0  0  0  0
 19 20  1  0  0  0  0
 19 28  1  0  0  0  0
 21 22  1  0  0  0  0
 22 31  1  0  0  0  0
 22 32  1  0  0  0  0
 22 33  1  0  0  0  0
M  END
> <PUBCHEM_COMPOUND_CID>
165412706

> <PUBCHEM_COMPOUND_CANONICALIZED>
1

> <PUBCHEM_CACTVS_COMPLEXITY>
445

> <PUBCHEM_CACTVS_HBOND_ACCEPTOR>
4

> <PUBCHEM_CACTVS_HBOND_DONOR>
2

> <PUBCHEM_CACTVS_ROTATABLE_BOND>
2

> <PUBCHEM_CACTVS_SUBSKEYS>
AAADccBzsABAEAAAAAAAAAAAAAAAAWLAAAAwAAAAAAAWAAAB8AAAHgRYAAABrAjF3gS/kZduGAisAzV3dACC8K13Gr4b+DW4dPiIaOLgmTGUIAhokALIyrcQgIAOAgAAAAAAAAAEAAAAAAAAAAAAAAAAAA==

> <PUBCHEM_IUPAC_OPENEYE_NAME>
N'-acetyl-5-(4-bromophenyl)imidazo[2,1-b]thiazole-3-carbohydrazide

> <PUBCHEM_IUPAC_CAS_NAME>
N'-acetyl-5-(4-bromophenyl)-3-imidazo[2,1-b]thiazolecarbohydrazide

> <PUBCHEM_IUPAC_NAME_MARKUP>
<I>N</I>&apos;-acetyl-5-(4-bromophenyl)imidazo[2,1-b][1,3]thiazole-3-carbohydrazide

> <PUBCHEM_IUPAC_NAME>
N'-acetyl-5-(4-bromophenyl)imidazo[2,1-b][1,3]thiazole-3-carbohydrazide

> <PUBCHEM_IUPAC_SYSTEMATIC_NAME>
5-(4-bromophenyl)-N'-ethanoyl-imidazo[2,1-b][1,3]thiazole-3-carbohydrazide

> <PUBCHEM_IUPAC_TRADITIONAL_NAME>
N'-acetyl-5-(4-bromophenyl)imidazo[2,1-b]thiazole-3-carbohydrazide

> <PUBCHEM_IUPAC_INCHI>
InChI=1S/C14H11BrN4O2S/c1-8(20)17-18-13(21)12-7-22-14-16-6-11(19(12)14)9-2-4-10(15)5-3-9/h2-7H,1H3,(H,17,20)(H,18,21)

> <PUBCHEM_IUPAC_INCHIKEY>
OJCVSCAUEKBQAE-UHFFFAOYSA-N

> <PUBCHEM_XLOGP3_AA>
3.3

> <PUBCHEM_EXACT_MASS>
377.97861

> <PUBCHEM_MOLECULAR_FORMULA>
C14H11BrN4O2S

> <PUBCHEM_MOLECULAR_WEIGHT>
379.23

> <PUBCHEM_CACTVS_TPSA>
104

> <PUBCHEM_MONOISOTOPIC_WEIGHT>
377.97861

> <PUBCHEM_TOTAL_CHARGE>
0

> <PUBCHEM_HEAVY_ATOM_COUNT>
22

> <PUBCHEM_ATOM_DEF_STEREO_COUNT>
0

> <PUBCHEM_ATOM_UDEF_STEREO_COUNT>
0

> <PUBCHEM_BOND_DEF_STEREO_COUNT>
0

> <PUBCHEM_BOND_UDEF_STEREO_COUNT>
0

> <PUBCHEM_ISOTOPIC_ATOM_COUNT>
0

> <PUBCHEM_COMPONENT_COUNT>
1

> <PUBCHEM_CACTVS_TAUTO_COUNT>
-1

> <PUBCHEM_COORDINATE_TYPE>
1
5
255

> <PUBCHEM_BONDANNOTATIONS>
10  14  8
12  16  8
12  17  8
16  18  8
17  19  8
18  20  8
19  20  8
2  11  8
2  14  8
5  10  8
5  11  8
5  9  8
6  11  8
6  13  8
9  13  8

$$$$
168679721
  -OEChem-07082511212D

 42 46  0     0  0  0  0  0  0999 V2000
    4.8898   -2.7348    0.0000 S   0  0  0  0  0  0  0  0  0  0  0  0
    6.5840   -0.6703    0.0000 N   0  0  0  0  0  0  0  0  0  0  0  0
   10.1723    1.1413    0.0000 N   0  0  0  0  0  0  0  0  0  0  0  0
    4.5579   -1.1599    0.0000 N   0  0  0  0  0  0  0  0  0  0  0  0
    9.2783    2.7037    0.0000 N   0  0  0  0  0  0  0  0  0  0  0  0
    7.5085    2.6659    0.0000 N   0  0  0  0  0  0  0  0  0  0  0  0
   11.0483    2.6796    0.0000 N   0  0  0  0  0  0  0  0  0  0  0  0
    7.5303   -0.3655    0.0000 C   0  0  0  0  0  0  0  0  0  0  0  0
    7.5303    0.6345    0.0000 C   0  0  0  0  0  0  0  0  0  0  0  0
    6.0004    0.1345    0.0000 C   0  0  0  0  0  0  0  0  0  0  0  0
    6.2734   -1.6208    0.0000 C   0  0  0  0  0  0  0  0  0  0  0  0
    6.5840    0.9392    0.0000 C   0  0  0  0  0  0  0  0  0  0  0  0
    8.3963    1.1345    0.0000 C   0  0  0  0  0  0  0  0  0  0  0  0
    8.3963   -0.8655    0.0000 C   0  0  0  0  0  0  0  0  0  0  0  0
    9.2623    0.6345    0.0000 C   0  0  0  0  0  0  0  0  0  0  0  0
    5.2949   -1.8270    0.0000 C   0  0  0  0  0  0  0  0  0  0  0  0
    9.2623   -0.3655    0.0000 C   0  0  0  0  0  0  0  0  0  0  0  0
    5.0004    0.1345    0.0000 C   0  0  0  0  0  0  0  0  0  0  0  0
    8.3802    2.1760    0.0000 C   0  0  0  0  0  0  0  0  0  0  0  0
    3.9010   -2.6317    0.0000 C   0  0  0  0  0  0  0  0  0  0  0  0
    3.6948   -1.6532    0.0000 C   0  0  0  0  0  0  0  0  0  0  0  0
   10.1803    2.1829    0.0000 C   0  0  0  0  0  0  0  0  0  0  0  0
    3.1567   -3.2996    0.0000 C   0  0  0  0  0  0  0  0  0  0  0  0
    2.7443   -1.3426    0.0000 C   0  0  0  0  0  0  0  0  0  0  0  0
    2.2062   -2.9889    0.0000 C   0  0  0  0  0  0  0  0  0  0  0  0
    2.0000   -2.0104    0.0000 C   0  0  0  0  0  0  0  0  0  0  0  0
    6.2940   -2.2404    0.0000 H   0  0  0  0  0  0  0  0  0  0  0  0
    6.8872   -1.7081    0.0000 H   0  0  0  0  0  0  0  0  0  0  0  0
    6.3914    1.5285    0.0000 H   0  0  0  0  0  0  0  0  0  0  0  0
    8.3963   -1.4855    0.0000 H   0  0  0  0  0  0  0  0  0  0  0  0
    9.7992   -0.6755    0.0000 H   0  0  0  0  0  0  0  0  0  0  0  0
    5.0004    0.7545    0.0000 H   0  0  0  0  0  0  0  0  0  0  0  0
    4.3804    0.1345    0.0000 H   0  0  0  0  0  0  0  0  0  0  0  0
    5.0004   -0.4855    0.0000 H   0  0  0  0  0  0  0  0  0  0  0  0
    7.5013    3.2859    0.0000 H   0  0  0  0  0  0  0  0  0  0  0  0
    6.9752    2.3497    0.0000 H   0  0  0  0  0  0  0  0  0  0  0  0
    3.2846   -3.9062    0.0000 H   0  0  0  0  0  0  0  0  0  0  0  0
    2.6164   -0.7359    0.0000 H   0  0  0  0  0  0  0  0  0  0  0  0
    1.7448   -3.4030    0.0000 H   0  0  0  0  0  0  0  0  0  0  0  0
    1.4107   -1.8178    0.0000 H   0  0  0  0  0  0  0  0  0  0  0  0
   11.5840    2.3675    0.0000 H   0  0  0  0  0  0  0  0  0  0  0  0
   11.0507    3.2996    0.0000 H   0  0  0  0  0  0  0  0  0  0  0  0
  1 16  1  0  0  0  0
  1 20  1  0  0  0  0
  2  8  1  0  0  0  0
  2 10  1  0  0  0  0
  2 11  1  0  0  0  0
  3 15  1  0  0  0  0
  3 22  2  0  0  0  0
  4 16  2  0  0  0  0
  4 21  1  0  0  0  0
  5 19  2  0  0  0  0
  5 22  1  0  0  0  0
  6 19  1  0  0  0  0
  6 35  1  0  0  0  0
  6 36  1  0  0  0  0
  7 22  1  0  0  0  0
  7 41  1  0  0  0  0
  7 42  1  0  0  0  0
  8  9  2  0  0  0  0
  8 14  1  0  0  0  0
  9 12  1  0  0  0  0
  9 13  1  0  0  0  0
 10 12  2  0  0  0  0
 10 18  1  0  0  0  0
 11 16  1  0  0  0  0
 11 27  1  0  0  0  0
 11 28  1  0  0  0  0
 12 29  1  0  0  0  0
 13 15  2  0  0  0  0
 13 19  1  0  0  0  0
 14 17  2  0  0  0  0
 14 30  1  0  0  0  0
 15 17  1  0  0  0  0
 17 31  1  0  0  0  0
 18 32  1  0  0  0  0
 18 33  1  0  0  0  0
 18 34  1  0  0  0  0
 20 21  1  0  0  0  0
 20 23  2  0  0  0  0
 21 24  2  0  0  0  0
 23 25  1  0  0  0  0
 23 37  1  0  0  0  0
 24 26  1  0  0  0  0
 24 38  1  0  0  0  0
 25 26  2  0  0  0  0
 25 39  1  0  0  0  0
 26 40  1  0  0  0  0
M  END
> <PUBCHEM_COMPOUND_CID>
168679721

> <PUBCHEM_COMPOUND_CANONICALIZED>
1

> <PUBCHEM_CACTVS_COMPLEXITY>
520

> <PUBCHEM_CACTVS_HBOND_ACCEPTOR>
6

> <PUBCHEM_CACTVS_HBOND_DONOR>
2

> <PUBCHEM_CACTVS_ROTATABLE_BOND>
2

> <PUBCHEM_CACTVS_SUBSKEYS>
AAADceB7gABAAAAAAAAAAAAAAAAAAWLAAAA8YIAAAAAAAFix/gAAHAQQAAAADAjBXgQz8fdMEAikAyZiZACD8KlhCrhJ2Dw4ZJiIaOLg2dGUJAhogALoyCcQgIAOgACAQAASAQAAAQCAACQCAAAAAAAAAA==

> <PUBCHEM_IUPAC_OPENEYE_NAME>
7-(1,3-benzothiazol-2-ylmethyl)-8-methyl-pyrrolo[3,2-f]quinazoline-1,3-diamine

> <PUBCHEM_IUPAC_CAS_NAME>
7-(1,3-benzothiazol-2-ylmethyl)-8-methylpyrrolo[3,2-f]quinazoline-1,3-diamine

> <PUBCHEM_IUPAC_NAME_MARKUP>
7-(1,3-benzothiazol-2-ylmethyl)-8-methylpyrrolo[3,2-f]quinazoline-1,3-diamine

> <PUBCHEM_IUPAC_NAME>
7-(1,3-benzothiazol-2-ylmethyl)-8-methylpyrrolo[3,2-f]quinazoline-1,3-diamine

> <PUBCHEM_IUPAC_SYSTEMATIC_NAME>
7-(1,3-benzothiazol-2-ylmethyl)-8-methyl-pyrrolo[3,2-f]quinazoline-1,3-diamine

> <PUBCHEM_IUPAC_TRADITIONAL_NAME>
[1-amino-7-(1,3-benzothiazol-2-ylmethyl)-8-methyl-pyrrolo[3,2-f]quinazolin-3-yl]amine

> <PUBCHEM_IUPAC_INCHI>
InChI=1S/C19H16N6S/c1-10-8-11-14(7-6-13-17(11)18(20)24-19(21)23-13)25(10)9-16-22-12-4-2-3-5-15(12)26-16/h2-8H,9H2,1H3,(H4,20,21,23,24)

> <PUBCHEM_IUPAC_INCHIKEY>
KSLMGDVFSKLWOG-UHFFFAOYSA-N

> <PUBCHEM_XLOGP3_AA>
3.4

> <PUBCHEM_EXACT_MASS>
360.11571571

> <PUBCHEM_MOLECULAR_FORMULA>
C19H16N6S

> <PUBCHEM_MOLECULAR_WEIGHT>
360.4

> <PUBCHEM_CACTVS_TPSA>
124

> <PUBCHEM_MONOISOTOPIC_WEIGHT>
360.11571571

> <PUBCHEM_TOTAL_CHARGE>
0

> <PUBCHEM_HEAVY_ATOM_COUNT>
26

> <PUBCHEM_ATOM_DEF_STEREO_COUNT>
0

> <PUBCHEM_ATOM_UDEF_STEREO_COUNT>
0

> <PUBCHEM_BOND_DEF_STEREO_COUNT>
0

> <PUBCHEM_BOND_UDEF_STEREO_COUNT>
0

> <PUBCHEM_ISOTOPIC_ATOM_COUNT>
0

> <PUBCHEM_COMPONENT_COUNT>
1

> <PUBCHEM_CACTVS_TAUTO_COUNT>
-1

> <PUBCHEM_COORDINATE_TYPE>
1
5
255

> <PUBCHEM_BONDANNOTATIONS>
1  16  8
1  20  8
10  12  8
13  15  8
13  19  8
14  17  8
15  17  8
2  10  8
2  8  8
20  21  8
20  23  8
21  24  8
23  25  8
24  26  8
25  26  8
3  15  8
3  22  8
4  16  8
4  21  8
5  19  8
5  22  8
8  14  8
8  9  8
9  12  8
9  13  8

$$$$
170835990
  -OEChem-07082511212D

 44 46  0     1  0  0  0  0  0999 V2000
    2.0000   -0.4050    0.0000 O   0  5  0  0  0  0  0  0  0  0  0  0
    2.8660   -1.9050    0.0000 O   0  0  0  0  0  0  0  0  0  0  0  0
    4.5981   -1.9050    0.0000 N   0  0  3  0  0  0  0  0  0  0  0  0
    2.8660   -0.9050    0.0000 N   0  3  0  0  0  0  0  0  0  0  0  0
    5.4641    3.5950    0.0000 N   0  0  0  0  0  0  0  0  0  0  0  0
    3.7320    3.5950    0.0000 N   0  0  0  0  0  0  0  0  0  0  0  0
    6.3301    2.0950    0.0000 N   0  0  0  0  0  0  0  0  0  0  0  0
    4.5981    5.0950    0.0000 N   0  0  0  0  0  0  0  0  0  0  0  0
    4.5981   -0.9050    0.0000 C   0  0  0  0  0  0  0  0  0  0  0  0
    5.4641   -2.4050    0.0000 C   0  0  0  0  0  0  0  0  0  0  0  0
    3.7320   -0.4050    0.0000 C   0  0  0  0  0  0  0  0  0  0  0  0
    4.5981    1.0950    0.0000 C   0  0  0  0  0  0  0  0  0  0  0  0
    5.4641   -0.4050    0.0000 C   0  0  0  0  0  0  0  0  0  0  0  0
    5.4641   -3.4050    0.0000 C   0  0  0  0  0  0  0  0  0  0  0  0
    3.7320    0.5950    0.0000 C   0  0  0  0  0  0  0  0  0  0  0  0
    5.4641    0.5950    0.0000 C   0  0  0  0  0  0  0  0  0  0  0  0
    3.7320   -2.4050    0.0000 C   0  0  0  0  0  0  0  0  0  0  0  0
    4.5981    2.0950    0.0000 C   0  0  0  0  0  0  0  0  0  0  0  0
    6.3301   -3.9050    0.0000 C   0  0  0  0  0  0  0  0  0  0  0  0
    4.5981   -3.9050    0.0000 C   0  0  0  0  0  0  0  0  0  0  0  0
    5.4641    2.5950    0.0000 C   0  0  0  0  0  0  0  0  0  0  0  0
    3.7320    2.5950    0.0000 C   0  0  0  0  0  0  0  0  0  0  0  0
    6.3301   -4.9050    0.0000 C   0  0  0  0  0  0  0  0  0  0  0  0
    4.5981   -4.9050    0.0000 C   0  0  0  0  0  0  0  0  0  0  0  0
    5.4641   -5.4050    0.0000 C   0  0  0  0  0  0  0  0  0  0  0  0
    4.5981    4.0950    0.0000 C   0  0  0  0  0  0  0  0  0  0  0  0
    6.0747   -2.5127    0.0000 H   0  0  0  0  0  0  0  0  0  0  0  0
    5.6762   -1.8224    0.0000 H   0  0  0  0  0  0  0  0  0  0  0  0
    6.0010   -0.7150    0.0000 H   0  0  0  0  0  0  0  0  0  0  0  0
    3.1951    0.9050    0.0000 H   0  0  0  0  0  0  0  0  0  0  0  0
    6.0010    0.9050    0.0000 H   0  0  0  0  0  0  0  0  0  0  0  0
    3.4220   -1.8681    0.0000 H   0  0  0  0  0  0  0  0  0  0  0  0
    3.1951   -2.7150    0.0000 H   0  0  0  0  0  0  0  0  0  0  0  0
    4.0420   -2.9419    0.0000 H   0  0  0  0  0  0  0  0  0  0  0  0
    6.8671   -3.5950    0.0000 H   0  0  0  0  0  0  0  0  0  0  0  0
    4.0611   -3.5950    0.0000 H   0  0  0  0  0  0  0  0  0  0  0  0
    3.1951    2.2850    0.0000 H   0  0  0  0  0  0  0  0  0  0  0  0
    6.8671   -5.2150    0.0000 H   0  0  0  0  0  0  0  0  0  0  0  0
    4.0611   -5.2150    0.0000 H   0  0  0  0  0  0  0  0  0  0  0  0
    5.4641   -6.0250    0.0000 H   0  0  0  0  0  0  0  0  0  0  0  0
    6.8671    2.4050    0.0000 H   0  0  0  0  0  0  0  0  0  0  0  0
    6.3301    1.4750    0.0000 H   0  0  0  0  0  0  0  0  0  0  0  0
    4.0611    5.4050    0.0000 H   0  0  0  0  0  0  0  0  0  0  0  0
    5.1350    5.4050    0.0000 H   0  0  0  0  0  0  0  0  0  0  0  0
  1  4  1  0  0  0  0
  2  4  2  0  0  0  0
  3  9  1  0  0  0  0
  3 10  1  0  0  0  0
  3 17  1  0  0  0  0
  4 11  1  0  0  0  0
  5 21  2  0  0  0  0
  5 26  1  0  0  0  0
  6 22  1  0  0  0  0
  6 26  2  0  0  0  0
  7 21  1  0  0  0  0
  7 41  1  0  0  0  0
  7 42  1  0  0  0  0
  8 26  1  0  0  0  0
  8 43  1  0  0  0  0
  8 44  1  0  0  0  0
  9 11  2  0  0  0  0
  9 13  1  0  0  0  0
 10 14  1  0  0  0  0
 10 27  1  0  0  0  0
 10 28  1  0  0  0  0
 11 15  1  0  0  0  0
 12 15  2  0  0  0  0
 12 16  1  0  0  0  0
 12 18  1  0  0  0  0
 13 16  2  0  0  0  0
 13 29  1  0  0  0  0
 14 19  2  0  0  0  0
 14 20  1  0  0  0  0
 15 30  1  0  0  0  0
 16 31  1  0  0  0  0
 17 32  1  0  0  0  0
 17 33  1  0  0  0  0
 17 34  1  0  0  0  0
 18 21  1  0  0  0  0
 18 22  2  0  0  0  0
 19 23  1  0  0  0  0
 19 35  1  0  0  0  0
 20 24  2  0  0  0  0
 20 36  1  0  0  0  0
 22 37  1  0  0  0  0
 23 25  2  0  0  0  0
 23 38  1  0  0  0  0
 24 25  1  0  0  0  0
 24 39  1  0  0  0  0
 25 40  1  0  0  0  0
M  CHG  2   1  -1   4   1
M  END
> <PUBCHEM_COMPOUND_CID>
170835990

> <PUBCHEM_COMPOUND_CANONICALIZED>
1

> <PUBCHEM_CACTVS_COMPLEXITY>
467

> <PUBCHEM_CACTVS_HBOND_ACCEPTOR>
7

> <PUBCHEM_CACTVS_HBOND_DONOR>
2

> <PUBCHEM_CACTVS_ROTATABLE_BOND>
4

> <PUBCHEM_CACTVS_SUBSKEYS>
AAADceB7sAAAAAAAAAAAAAAAAAAAAAAAAAA8YIAAAAAAAAAB0AAAHAAUAAAADAjBGgQ/8JdYUAChAjZnZwCCgCkxAqAp2CAodJqIaKLA2dGUJAhogILIyCcQgMAOiAAAQAAAACAQAACAAAAAQAAAAAAAAA==

> <PUBCHEM_IUPAC_OPENEYE_NAME>
5-[4-[benzyl(methyl)amino]-3-nitro-phenyl]pyrimidine-2,4-diamine

> <PUBCHEM_IUPAC_CAS_NAME>
5-[4-[methyl-(phenylmethyl)amino]-3-nitrophenyl]pyrimidine-2,4-diamine

> <PUBCHEM_IUPAC_NAME_MARKUP>
5-[4-[benzyl(methyl)amino]-3-nitrophenyl]pyrimidine-2,4-diamine

> <PUBCHEM_IUPAC_NAME>
5-[4-[benzyl(methyl)amino]-3-nitrophenyl]pyrimidine-2,4-diamine

> <PUBCHEM_IUPAC_SYSTEMATIC_NAME>
5-[4-[methyl-(phenylmethyl)amino]-3-nitro-phenyl]pyrimidine-2,4-diamine

> <PUBCHEM_IUPAC_TRADITIONAL_NAME>
benzyl-[4-(2,4-diaminopyrimidin-5-yl)-2-nitro-phenyl]-methyl-amine

> <PUBCHEM_IUPAC_INCHI>
InChI=1S/C18H18N6O2/c1-23(11-12-5-3-2-4-6-12)15-8-7-13(9-16(15)24(25)26)14-10-21-18(20)22-17(14)19/h2-10H,11H2,1H3,(H4,19,20,21,22)

> <PUBCHEM_IUPAC_INCHIKEY>
RSAVWZYTUCFLEE-UHFFFAOYSA-N

> <PUBCHEM_XLOGP3_AA>
2.6

> <PUBCHEM_EXACT_MASS>
350.14912384

> <PUBCHEM_MOLECULAR_FORMULA>
C18H18N6O2

> <PUBCHEM_MOLECULAR_WEIGHT>
350.4

> <PUBCHEM_CACTVS_TPSA>
127

> <PUBCHEM_MONOISOTOPIC_WEIGHT>
350.14912384

> <PUBCHEM_TOTAL_CHARGE>
0

> <PUBCHEM_HEAVY_ATOM_COUNT>
26

> <PUBCHEM_ATOM_DEF_STEREO_COUNT>
0

> <PUBCHEM_ATOM_UDEF_STEREO_COUNT>
0

> <PUBCHEM_BOND_DEF_STEREO_COUNT>
0

> <PUBCHEM_BOND_UDEF_STEREO_COUNT>
0

> <PUBCHEM_ISOTOPIC_ATOM_COUNT>
0

> <PUBCHEM_COMPONENT_COUNT>
1

> <PUBCHEM_CACTVS_TAUTO_COUNT>
-1

> <PUBCHEM_COORDINATE_TYPE>
1
5
255

> <PUBCHEM_BONDANNOTATIONS>
11  15  8
12  15  8
12  16  8
13  16  8
14  19  8
14  20  8
18  21  8
18  22  8
19  23  8
20  24  8
23  25  8
24  25  8
5  21  8
5  26  8
6  22  8
6  26  8
9  11  8
9  13  8

$$$$
171038101
  -OEChem-07082511212D

 45 47  0     0  0  0  0  0  0999 V2000
    6.3301   -1.1270    0.0000 I   0  0  0  0  0  0  0  0  0  0  0  0
    4.5981   -2.1270    0.0000 O   0  0  0  0  0  0  0  0  0  0  0  0
    4.5981    1.8730    0.0000 O   0  0  0  0  0  0  0  0  0  0  0  0
    6.3301    3.8730    0.0000 N   0  0  0  0  0  0  0  0  0  0  0  0
    7.1962    2.3730    0.0000 N   0  0  0  0  0  0  0  0  0  0  0  0
    4.5981    3.8730    0.0000 N   0  0  0  0  0  0  0  0  0  0  0  0
    8.0622    3.8730    0.0000 N   0  0  0  0  0  0  0  0  0  0  0  0
    3.7320   -3.6270    0.0000 C   0  0  0  0  0  0  0  0  0  0  0  0
    3.2320   -4.4930    0.0000 C   0  0  0  0  0  0  0  0  0  0  0  0
    4.2320   -4.4930    0.0000 C   0  0  0  0  0  0  0  0  0  0  0  0
    3.7320   -2.6270    0.0000 C   0  0  0  0  0  0  0  0  0  0  0  0
    4.5981   -1.1270    0.0000 C   0  0  0  0  0  0  0  0  0  0  0  0
    3.7320    0.3730    0.0000 C   0  0  0  0  0  0  0  0  0  0  0  0
    3.7320   -0.6270    0.0000 C   0  0  0  0  0  0  0  0  0  0  0  0
    2.8660    0.8730    0.0000 C   0  0  0  0  0  0  0  0  0  0  0  0
    5.4641   -0.6270    0.0000 C   0  0  0  0  0  0  0  0  0  0  0  0
    4.5981    0.8730    0.0000 C   0  0  0  0  0  0  0  0  0  0  0  0
    5.4641    0.3730    0.0000 C   0  0  0  0  0  0  0  0  0  0  0  0
    2.0000    0.3730    0.0000 C   0  0  0  0  0  0  0  0  0  0  0  0
    2.8660    1.8730    0.0000 C   0  0  0  0  0  0  0  0  0  0  0  0
    5.4641    2.3730    0.0000 C   0  0  0  0  0  0  0  0  0  0  0  0
    5.4641    3.3730    0.0000 C   0  0  0  0  0  0  0  0  0  0  0  0
    6.3301    1.8730    0.0000 C   0  0  0  0  0  0  0  0  0  0  0  0
    7.1962    3.3730    0.0000 C   0  0  0  0  0  0  0  0  0  0  0  0
    4.3309   -3.4665    0.0000 H   0  0  0  0  0  0  0  0  0  0  0  0
    2.6494   -4.2810    0.0000 H   0  0  0  0  0  0  0  0  0  0  0  0
    3.1244   -5.1036    0.0000 H   0  0  0  0  0  0  0  0  0  0  0  0
    4.3397   -5.1036    0.0000 H   0  0  0  0  0  0  0  0  0  0  0  0
    4.8147   -4.2810    0.0000 H   0  0  0  0  0  0  0  0  0  0  0  0
    3.5200   -2.0444    0.0000 H   0  0  0  0  0  0  0  0  0  0  0  0
    3.1215   -2.7346    0.0000 H   0  0  0  0  0  0  0  0  0  0  0  0
    3.1951   -0.9370    0.0000 H   0  0  0  0  0  0  0  0  0  0  0  0
    2.8660    0.2530    0.0000 H   0  0  0  0  0  0  0  0  0  0  0  0
    6.0010    0.6830    0.0000 H   0  0  0  0  0  0  0  0  0  0  0  0
    1.6900    0.9099    0.0000 H   0  0  0  0  0  0  0  0  0  0  0  0
    1.4631    0.0630    0.0000 H   0  0  0  0  0  0  0  0  0  0  0  0
    2.3100   -0.1639    0.0000 H   0  0  0  0  0  0  0  0  0  0  0  0
    3.4860    1.8730    0.0000 H   0  0  0  0  0  0  0  0  0  0  0  0
    2.8660    2.4930    0.0000 H   0  0  0  0  0  0  0  0  0  0  0  0
    2.2460    1.8730    0.0000 H   0  0  0  0  0  0  0  0  0  0  0  0
    6.3301    1.2530    0.0000 H   0  0  0  0  0  0  0  0  0  0  0  0
    4.5981    4.4930    0.0000 H   0  0  0  0  0  0  0  0  0  0  0  0
    4.0611    3.5630    0.0000 H   0  0  0  0  0  0  0  0  0  0  0  0
    8.5991    3.5630    0.0000 H   0  0  0  0  0  0  0  0  0  0  0  0
    8.0622    4.4930    0.0000 H   0  0  0  0  0  0  0  0  0  0  0  0
  1 16  1  0  0  0  0
  2 11  1  0  0  0  0
  2 12  1  0  0  0  0
  3 17  1  0  0  0  0
  3 21  1  0  0  0  0
  4 22  2  0  0  0  0
  4 24  1  0  0  0  0
  5 23  1  0  0  0  0
  5 24  2  0  0  0  0
  6 22  1  0  0  0  0
  6 42  1  0  0  0  0
  6 43  1  0  0  0  0
  7 24  1  0  0  0  0
  7 44  1  0  0  0  0
  7 45  1  0  0  0  0
  8  9  1  0  0  0  0
  8 10  1  0  0  0  0
  8 11  1  0  0  0  0
  8 25  1  0  0  0  0
  9 10  1  0  0  0  0
  9 26  1  0  0  0  0
  9 27  1  0  0  0  0
 10 28  1  0  0  0  0
 10 29  1  0  0  0  0
 11 30  1  0  0  0  0
 11 31  1  0  0  0  0
 12 14  1  0  0  0  0
 12 16  2  0  0  0  0
 13 14  2  0  0  0  0
 13 15  1  0  0  0  0
 13 17  1  0  0  0  0
 14 32  1  0  0  0  0
 15 19  1  0  0  0  0
 15 20  1  0  0  0  0
 15 33  1  0  0  0  0
 16 18  1  0  0  0  0
 17 18  2  0  0  0  0
 18 34  1  0  0  0  0
 19 35  1  0  0  0  0
 19 36  1  0  0  0  0
 19 37  1  0  0  0  0
 20 38  1  0  0  0  0
 20 39  1  0  0  0  0
 20 40  1  0  0  0  0
 21 22  1  0  0  0  0
 21 23  2  0  0  0  0
 23 41  1  0  0  0  0
M  END
> <PUBCHEM_COMPOUND_CID>
171038101

> <PUBCHEM_COMPOUND_CANONICALIZED>
1

> <PUBCHEM_CACTVS_COMPLEXITY>
410

> <PUBCHEM_CACTVS_HBOND_ACCEPTOR>
6

> <PUBCHEM_CACTVS_HBOND_DONOR>
2

> <PUBCHEM_CACTVS_ROTATABLE_BOND>
6

> <PUBCHEM_CACTVS_SUBSKEYS>
AAADceB7sAAAAgAAAAAAAAAAGAAAAAAAAAA8QAAAAAAAAAABwAAAHgAwAAAADQTjmgY/tpZIFACgAjJnZASCiCkxYKAB2CAvTJiOLqLEeVqHPCiswBNYqCfAwPAOgQABAAAIAAACAAIAABAAAAAAAAAAAA==

> <PUBCHEM_IUPAC_OPENEYE_NAME>
5-[4-(cyclopropylmethoxy)-5-iodo-2-isopropyl-phenoxy]pyrimidine-2,4-diamine

> <PUBCHEM_IUPAC_CAS_NAME>
5-[4-(cyclopropylmethoxy)-5-iodo-2-propan-2-ylphenoxy]pyrimidine-2,4-diamine

> <PUBCHEM_IUPAC_NAME_MARKUP>
5-[4-(cyclopropylmethoxy)-5-iodo-2-propan-2-ylphenoxy]pyrimidine-2,4-diamine

> <PUBCHEM_IUPAC_NAME>
5-[4-(cyclopropylmethoxy)-5-iodo-2-propan-2-ylphenoxy]pyrimidine-2,4-diamine

> <PUBCHEM_IUPAC_SYSTEMATIC_NAME>
5-[4-(cyclopropylmethoxy)-5-iodanyl-2-propan-2-yl-phenoxy]pyrimidine-2,4-diamine

> <PUBCHEM_IUPAC_TRADITIONAL_NAME>
[2-amino-5-[4-(cyclopropylmethoxy)-5-iodo-2-isopropyl-phenoxy]pyrimidin-4-yl]amine

> <PUBCHEM_IUPAC_INCHI>
InChI=1S/C17H21IN4O2/c1-9(2)11-5-14(23-8-10-3-4-10)12(18)6-13(11)24-15-7-21-17(20)22-16(15)19/h5-7,9-10H,3-4,8H2,1-2H3,(H4,19,20,21,22)

> <PUBCHEM_IUPAC_INCHIKEY>
OOZZEXUFFLIQPD-UHFFFAOYSA-N

> <PUBCHEM_XLOGP3_AA>
3.5

> <PUBCHEM_EXACT_MASS>
440.07092

> <PUBCHEM_MOLECULAR_FORMULA>
C17H21IN4O2

> <PUBCHEM_MOLECULAR_WEIGHT>
440.3

> <PUBCHEM_CACTVS_TPSA>
96.3

> <PUBCHEM_MONOISOTOPIC_WEIGHT>
440.07092

> <PUBCHEM_TOTAL_CHARGE>
0

> <PUBCHEM_HEAVY_ATOM_COUNT>
24

> <PUBCHEM_ATOM_DEF_STEREO_COUNT>
0

> <PUBCHEM_ATOM_UDEF_STEREO_COUNT>
0

> <PUBCHEM_BOND_DEF_STEREO_COUNT>
0

> <PUBCHEM_BOND_UDEF_STEREO_COUNT>
0

> <PUBCHEM_ISOTOPIC_ATOM_COUNT>
0

> <PUBCHEM_COMPONENT_COUNT>
1

> <PUBCHEM_CACTVS_TAUTO_COUNT>
-1

> <PUBCHEM_COORDINATE_TYPE>
1
5
255

> <PUBCHEM_BONDANNOTATIONS>
12  14  8
12  16  8
13  14  8
13  17  8
16  18  8
17  18  8
21  22  8
21  23  8
4  22  8
4  24  8
5  23  8
5  24  8

$$$$
165412808
  -OEChem-07082511212D

 44 46  0     0  0  0  0  0  0999 V2000
    2.0000   -0.7277    0.0000 Cl  0  0  0  0  0  0  0  0  0  0  0  0
   10.6766   -1.7623    0.0000 O   0  0  0  0  0  0  0  0  0  0  0  0
    8.9282   -1.7277    0.0000 O   0  0  0  0  0  0  0  0  0  0  0  0
   12.4583    1.2964    0.0000 O   0  0  0  0  0  0  0  0  0  0  0  0
    7.1962    2.2723    0.0000 O   0  0  0  0  0  0  0  0  0  0  0  0
    6.3301    0.7723    0.0000 N   0  0  0  0  0  0  0  0  0  0  0  0
    9.7942   -0.2277    0.0000 C   0  0  0  0  0  0  0  0  0  0  0  0
    9.7942    0.7723    0.0000 C   0  0  0  0  0  0  0  0  0  0  0  0
    8.0622    0.7723    0.0000 C   0  0  0  0  0  0  0  0  0  0  0  0
    8.9282    1.2723    0.0000 C   0  0  0  0  0  0  0  0  0  0  0  0
    8.9282   -0.7277    0.0000 C   0  0  0  0  0  0  0  0  0  0  0  0
   10.6882   -0.7624    0.0000 C   0  0  0  0  0  0  0  0  0  0  0  0
   10.6882    1.3070    0.0000 C   0  0  0  0  0  0  0  0  0  0  0  0
    8.0622   -0.2277    0.0000 C   0  0  0  0  0  0  0  0  0  0  0  0
   11.5942    0.7931    0.0000 C   0  0  0  0  0  0  0  0  0  0  0  0
   11.5942   -0.2485    0.0000 C   0  0  0  0  0  0  0  0  0  0  0  0
    7.1962    1.2723    0.0000 C   0  0  0  0  0  0  0  0  0  0  0  0
    5.4641    1.2723    0.0000 C   0  0  0  0  0  0  0  0  0  0  0  0
    4.5981    0.7723    0.0000 C   0  0  0  0  0  0  0  0  0  0  0  0
    3.7320    1.2723    0.0000 C   0  0  0  0  0  0  0  0  0  0  0  0
    4.5981   -0.2277    0.0000 C   0  0  0  0  0  0  0  0  0  0  0  0
    2.8660    0.7723    0.0000 C   0  0  0  0  0  0  0  0  0  0  0  0
    3.7320   -0.7277    0.0000 C   0  0  0  0  0  0  0  0  0  0  0  0
   11.5368   -2.2723    0.0000 C   0  0  0  0  0  0  0  0  0  0  0  0
    2.8660   -0.2277    0.0000 C   0  0  0  0  0  0  0  0  0  0  0  0
   13.3263    0.7998    0.0000 C   0  0  0  0  0  0  0  0  0  0  0  0
    8.9282    1.8923    0.0000 H   0  0  0  0  0  0  0  0  0  0  0  0
   10.6810    1.9269    0.0000 H   0  0  0  0  0  0  0  0  0  0  0  0
    7.5252   -0.5377    0.0000 H   0  0  0  0  0  0  0  0  0  0  0  0
   12.1300   -0.5606    0.0000 H   0  0  0  0  0  0  0  0  0  0  0  0
    5.8626    1.7472    0.0000 H   0  0  0  0  0  0  0  0  0  0  0  0
    5.0656    1.7472    0.0000 H   0  0  0  0  0  0  0  0  0  0  0  0
    6.3301    0.1523    0.0000 H   0  0  0  0  0  0  0  0  0  0  0  0
    3.7320    1.8923    0.0000 H   0  0  0  0  0  0  0  0  0  0  0  0
    5.1350   -0.5377    0.0000 H   0  0  0  0  0  0  0  0  0  0  0  0
    8.3913   -2.0377    0.0000 H   0  0  0  0  0  0  0  0  0  0  0  0
    2.3291    1.0823    0.0000 H   0  0  0  0  0  0  0  0  0  0  0  0
    3.7320   -1.3477    0.0000 H   0  0  0  0  0  0  0  0  0  0  0  0
   11.2206   -2.8056    0.0000 H   0  0  0  0  0  0  0  0  0  0  0  0
   12.0701   -2.5885    0.0000 H   0  0  0  0  0  0  0  0  0  0  0  0
   11.8530   -1.7390    0.0000 H   0  0  0  0  0  0  0  0  0  0  0  0
   13.0183    0.2617    0.0000 H   0  0  0  0  0  0  0  0  0  0  0  0
   13.8644    0.4919    0.0000 H   0  0  0  0  0  0  0  0  0  0  0  0
   13.6342    1.3379    0.0000 H   0  0  0  0  0  0  0  0  0  0  0  0
  1 25  1  0  0  0  0
  2 12  1  0  0  0  0
  2 24  1  0  0  0  0
  3 11  1  0  0  0  0
  3 36  1  0  0  0  0
  4 15  1  0  0  0  0
  4 26  1  0  0  0  0
  5 17  2  0  0  0  0
  6 17  1  0  0  0  0
  6 18  1  0  0  0  0
  6 33  1  0  0  0  0
  7  8  1  0  0  0  0
  7 11  2  0  0  0  0
  7 12  1  0  0  0  0
  8 10  2  0  0  0  0
  8 13  1  0  0  0  0
  9 10  1  0  0  0  0
  9 14  2  0  0  0  0
  9 17  1  0  0  0  0
 10 27  1  0  0  0  0
 11 14  1  0  0  0  0
 12 16  2  0  0  0  0
 13 15  2  0  0  0  0
 13 28  1  0  0  0  0
 14 29  1  0  0  0  0
 15 16  1  0  0  0  0
 16 30  1  0  0  0  0
 18 19  1  0  0  0  0
 18 31  1  0  0  0  0
 18 32  1  0  0  0  0
 19 20  2  0  0  0  0
 19 21  1  0  0  0  0
 20 22  1  0  0  0  0
 20 34  1  0  0  0  0
 21 23  2  0  0  0  0
 21 35  1  0  0  0  0
 22 25  2  0  0  0  0
 22 37  1  0  0  0  0
 23 25  1  0  0  0  0
 23 38  1  0  0  0  0
 24 39  1  0  0  0  0
 24 40  1  0  0  0  0
 24 41  1  0  0  0  0
 26 42  1  0  0  0  0
 26 43  1  0  0  0  0
 26 44  1  0  0  0  0
M  END
> <PUBCHEM_COMPOUND_CID>
165412808

> <PUBCHEM_COMPOUND_CANONICALIZED>
1

> <PUBCHEM_CACTVS_COMPLEXITY>
469

> <PUBCHEM_CACTVS_HBOND_ACCEPTOR>
4

> <PUBCHEM_CACTVS_HBOND_DONOR>
2

> <PUBCHEM_CACTVS_ROTATABLE_BOND>
5

> <PUBCHEM_CACTVS_SUBSKEYS>
AAADceB6OAAEAAAAAAAAAAAAAAAAAAAAAAAwYMAAAAAAAADBVAAAHgIQCAAADAbBmCYyBsLABgCIAiFSEACCCAAkJQAIiIEODsgMJzKHtxuEcShlxhWIuYe66PyO5AADCAAYAADIAAYQADAAAAAAAAAAAA==

> <PUBCHEM_IUPAC_OPENEYE_NAME>
N-[(4-chlorophenyl)methyl]-4-hydroxy-5,7-dimethoxy-naphthalene-2-carboxamide

> <PUBCHEM_IUPAC_CAS_NAME>
N-[(4-chlorophenyl)methyl]-4-hydroxy-5,7-dimethoxy-2-naphthalenecarboxamide

> <PUBCHEM_IUPAC_NAME_MARKUP>
<I>N</I>-[(4-chlorophenyl)methyl]-4-hydroxy-5,7-dimethoxynaphthalene-2-carboxamide

> <PUBCHEM_IUPAC_NAME>
N-[(4-chlorophenyl)methyl]-4-hydroxy-5,7-dimethoxynaphthalene-2-carboxamide

> <PUBCHEM_IUPAC_SYSTEMATIC_NAME>
N-[(4-chlorophenyl)methyl]-5,7-dimethoxy-4-oxidanyl-naphthalene-2-carboxamide

> <PUBCHEM_IUPAC_TRADITIONAL_NAME>
N-(4-chlorobenzyl)-4-hydroxy-5,7-dimethoxy-2-naphthamide

> <PUBCHEM_IUPAC_INCHI>
InChI=1S/C20H18ClNO4/c1-25-16-8-13-7-14(9-17(23)19(13)18(10-16)26-2)20(24)22-11-12-3-5-15(21)6-4-12/h3-10,23H,11H2,1-2H3,(H,22,24)

> <PUBCHEM_IUPAC_INCHIKEY>
JIXYEXYBLVWMHB-UHFFFAOYSA-N

> <PUBCHEM_XLOGP3_AA>
4.2

> <PUBCHEM_EXACT_MASS>
371.0924357

> <PUBCHEM_MOLECULAR_FORMULA>
C20H18ClNO4

> <PUBCHEM_MOLECULAR_WEIGHT>
371.8

> <PUBCHEM_CACTVS_TPSA>
67.8

> <PUBCHEM_MONOISOTOPIC_WEIGHT>
371.0924357

> <PUBCHEM_TOTAL_CHARGE>
0

> <PUBCHEM_HEAVY_ATOM_COUNT>
26

> <PUBCHEM_ATOM_DEF_STEREO_COUNT>
0

> <PUBCHEM_ATOM_UDEF_STEREO_COUNT>
0

> <PUBCHEM_BOND_DEF_STEREO_COUNT>
0

> <PUBCHEM_BOND_UDEF_STEREO_COUNT>
0

> <PUBCHEM_ISOTOPIC_ATOM_COUNT>
0

> <PUBCHEM_COMPONENT_COUNT>
1

> <PUBCHEM_CACTVS_TAUTO_COUNT>
-1

> <PUBCHEM_COORDINATE_TYPE>
1
5
255

> <PUBCHEM_BONDANNOTATIONS>
11  14  8
12  16  8
13  15  8
15  16  8
19  20  8
19  21  8
20  22  8
21  23  8
22  25  8
23  25  8
7  11  8
7  12  8
7  8  8
8  10  8
8  13  8
9  10  8
9  14  8

$$$$
168679720
  -OEChem-07082511212D

 39 43  0     0  0  0  0  0  0999 V2000
    2.0000   -2.3731    0.0000 S   0  0  0  0  0  0  0  0  0  0  0  0
    6.1540   -0.3988    0.0000 N   0  0  0  0  0  0  0  0  0  0  0  0
    9.7422    1.4128    0.0000 N   0  0  0  0  0  0  0  0  0  0  0  0
    8.8482    2.9752    0.0000 N   0  0  0  0  0  0  0  0  0  0  0  0
    7.0784    2.9374    0.0000 N   0  0  0  0  0  0  0  0  0  0  0  0
    3.0749   -3.5710    0.0000 N   0  0  0  0  0  0  0  0  0  0  0  0
   10.6182    2.9510    0.0000 N   0  0  0  0  0  0  0  0  0  0  0  0
    7.1002   -0.0941    0.0000 C   0  0  0  0  0  0  0  0  0  0  0  0
    7.1002    0.9059    0.0000 C   0  0  0  0  0  0  0  0  0  0  0  0
    5.8433   -1.3493    0.0000 C   0  0  0  0  0  0  0  0  0  0  0  0
    7.9662    1.4059    0.0000 C   0  0  0  0  0  0  0  0  0  0  0  0
    5.5704    0.4059    0.0000 C   0  0  0  0  0  0  0  0  0  0  0  0
    6.1540    1.2107    0.0000 C   0  0  0  0  0  0  0  0  0  0  0  0
    4.8648   -1.5556    0.0000 C   0  0  0  0  0  0  0  0  0  0  0  0
    7.9662   -0.5941    0.0000 C   0  0  0  0  0  0  0  0  0  0  0  0
    8.8322    0.9059    0.0000 C   0  0  0  0  0  0  0  0  0  0  0  0
    8.8322   -0.0941    0.0000 C   0  0  0  0  0  0  0  0  0  0  0  0
    7.9502    2.4474    0.0000 C   0  0  0  0  0  0  0  0  0  0  0  0
    4.5541   -2.5061    0.0000 C   0  0  0  0  0  0  0  0  0  0  0  0
    4.1970   -0.8112    0.0000 C   0  0  0  0  0  0  0  0  0  0  0  0
    3.5756   -2.7123    0.0000 C   0  0  0  0  0  0  0  0  0  0  0  0
    2.9078   -1.9680    0.0000 C   0  0  0  0  0  0  0  0  0  0  0  0
    3.2184   -1.0175    0.0000 C   0  0  0  0  0  0  0  0  0  0  0  0
    9.7503    2.4544    0.0000 C   0  0  0  0  0  0  0  0  0  0  0  0
    2.1030   -3.3618    0.0000 C   0  0  0  0  0  0  0  0  0  0  0  0
    5.8639   -1.9690    0.0000 H   0  0  0  0  0  0  0  0  0  0  0  0
    6.4571   -1.4367    0.0000 H   0  0  0  0  0  0  0  0  0  0  0  0
    4.9504    0.4059    0.0000 H   0  0  0  0  0  0  0  0  0  0  0  0
    5.9614    1.8000    0.0000 H   0  0  0  0  0  0  0  0  0  0  0  0
    7.9662   -1.2141    0.0000 H   0  0  0  0  0  0  0  0  0  0  0  0
    9.3692   -0.4041    0.0000 H   0  0  0  0  0  0  0  0  0  0  0  0
    4.9682   -2.9675    0.0000 H   0  0  0  0  0  0  0  0  0  0  0  0
    4.3896   -0.2219    0.0000 H   0  0  0  0  0  0  0  0  0  0  0  0
    2.8044   -0.5560    0.0000 H   0  0  0  0  0  0  0  0  0  0  0  0
    7.0712    3.5573    0.0000 H   0  0  0  0  0  0  0  0  0  0  0  0
    6.5451    2.6212    0.0000 H   0  0  0  0  0  0  0  0  0  0  0  0
    1.6416   -3.7759    0.0000 H   0  0  0  0  0  0  0  0  0  0  0  0
   11.1540    2.6390    0.0000 H   0  0  0  0  0  0  0  0  0  0  0  0
   10.6206    3.5710    0.0000 H   0  0  0  0  0  0  0  0  0  0  0  0
  1 22  1  0  0  0  0
  1 25  1  0  0  0  0
  2  8  1  0  0  0  0
  2 10  1  0  0  0  0
  2 12  1  0  0  0  0
  3 16  1  0  0  0  0
  3 24  2  0  0  0  0
  4 18  2  0  0  0  0
  4 24  1  0  0  0  0
  5 18  1  0  0  0  0
  5 35  1  0  0  0  0
  5 36  1  0  0  0  0
  6 21  1  0  0  0  0
  6 25  2  0  0  0  0
  7 24  1  0  0  0  0
  7 38  1  0  0  0  0
  7 39  1  0  0  0  0
  8  9  2  0  0  0  0
  8 15  1  0  0  0  0
  9 11  1  0  0  0  0
  9 13  1  0  0  0  0
 10 14  1  0  0  0  0
 10 26  1  0  0  0  0
 10 27  1  0  0  0  0
 11 16  2  0  0  0  0
 11 18  1  0  0  0  0
 12 13  2  0  0  0  0
 12 28  1  0  0  0  0
 13 29  1  0  0  0  0
 14 19  2  0  0  0  0
 14 20  1  0  0  0  0
 15 17  2  0  0  0  0
 15 30  1  0  0  0  0
 16 17  1  0  0  0  0
 17 31  1  0  0  0  0
 19 21  1  0  0  0  0
 19 32  1  0  0  0  0
 20 23  2  0  0  0  0
 20 33  1  0  0  0  0
 21 22  2  0  0  0  0
 22 23  1  0  0  0  0
 23 34  1  0  0  0  0
 25 37  1  0  0  0  0
M  END
> <PUBCHEM_COMPOUND_CID>
168679720

> <PUBCHEM_COMPOUND_CANONICALIZED>
1

> <PUBCHEM_CACTVS_COMPLEXITY>
492

> <PUBCHEM_CACTVS_HBOND_ACCEPTOR>
6

> <PUBCHEM_CACTVS_HBOND_DONOR>
2

> <PUBCHEM_CACTVS_ROTATABLE_BOND>
2

> <PUBCHEM_CACTVS_SUBSKEYS>
AAADccB7gABAAAAAAAAAAAAAAAAAAWLAAAA8YIAAAAAAAFix/gAAHAQQAAAADAjBXgS98fdMEAikAzZnZACD8KlxCrhJ2Dw4ZJiIKOLg2dGEJAhogALIyCcQgIAOkACAQAASAQAgAQCAACQCAAAAAAAAAA==

> <PUBCHEM_IUPAC_OPENEYE_NAME>
7-(1,3-benzothiazol-5-ylmethyl)pyrrolo[3,2-f]quinazoline-1,3-diamine

> <PUBCHEM_IUPAC_CAS_NAME>
7-(1,3-benzothiazol-5-ylmethyl)pyrrolo[3,2-f]quinazoline-1,3-diamine

> <PUBCHEM_IUPAC_NAME_MARKUP>
7-(1,3-benzothiazol-5-ylmethyl)pyrrolo[3,2-f]quinazoline-1,3-diamine

> <PUBCHEM_IUPAC_NAME>
7-(1,3-benzothiazol-5-ylmethyl)pyrrolo[3,2-f]quinazoline-1,3-diamine

> <PUBCHEM_IUPAC_SYSTEMATIC_NAME>
7-(1,3-benzothiazol-5-ylmethyl)pyrrolo[3,2-f]quinazoline-1,3-diamine

> <PUBCHEM_IUPAC_TRADITIONAL_NAME>
[1-amino-7-(1,3-benzothiazol-5-ylmethyl)pyrrolo[3,2-f]quinazolin-3-yl]amine

> <PUBCHEM_IUPAC_INCHI>
InChI=1S/C18H14N6S/c19-17-16-11-5-6-24(14(11)3-2-12(16)22-18(20)23-17)8-10-1-4-15-13(7-10)21-9-25-15/h1-7,9H,8H2,(H4,19,20,22,23)

> <PUBCHEM_IUPAC_INCHIKEY>
WFHFOKYUKSODFR-UHFFFAOYSA-N

> <PUBCHEM_XLOGP3_AA>
3

> <PUBCHEM_EXACT_MASS>
346.10006565

> <PUBCHEM_MOLECULAR_FORMULA>
C18H14N6S

> <PUBCHEM_MOLECULAR_WEIGHT>
346.4

> <PUBCHEM_CACTVS_TPSA>
124

> <PUBCHEM_MONOISOTOPIC_WEIGHT>
346.10006565

> <PUBCHEM_TOTAL_CHARGE>
0

> <PUBCHEM_HEAVY_ATOM_COUNT>
25

> <PUBCHEM_ATOM_DEF_STEREO_COUNT>
0

> <PUBCHEM_ATOM_UDEF_STEREO_COUNT>
0

> <PUBCHEM_BOND_DEF_STEREO_COUNT>
0

> <PUBCHEM_BOND_UDEF_STEREO_COUNT>
0

> <PUBCHEM_ISOTOPIC_ATOM_COUNT>
0

> <PUBCHEM_COMPONENT_COUNT>
1

> <PUBCHEM_CACTVS_TAUTO_COUNT>
-1

> <PUBCHEM_COORDINATE_TYPE>
1
5
255

> <PUBCHEM_BONDANNOTATIONS>
1  22  8
1  25  8
11  16  8
11  18  8
12  13  8
14  19  8
14  20  8
15  17  8
16  17  8
19  21  8
2  12  8
2  8  8
20  23  8
21  22  8
22  23  8
3  16  8
3  24  8
4  18  8
4  24  8
6  21  8
6  25  8
8  15  8
8  9  8
9  11  8
9  13  8

$$$$
155553051
  -OEChem-07082511212D

 57 61  0     0  0  0  0  0  0999 V2000
    2.0000    1.2276    0.0000 Br  0  0  0  0  0  0  0  0  0  0  0  0
    9.2928    1.3093    0.0000 O   0  0  0  0  0  0  0  0  0  0  0  0
   12.4799    2.8089    0.0000 O   0  0  0  0  0  0  0  0  0  0  0  0
   12.8371   -0.4954    0.0000 N   0  0  0  0  0  0  0  0  0  0  0  0
    5.9781    1.6457    0.0000 N   0  0  0  0  0  0  0  0  0  0  0  0
    7.4562    2.3039    0.0000 N   0  0  0  0  0  0  0  0  0  0  0  0
    6.4781    2.5118    0.0000 N   0  0  0  0  0  0  0  0  0  0  0  0
   11.8909   -0.1907    0.0000 C   0  0  0  0  0  0  0  0  0  0  0  0
   13.4207    0.3093    0.0000 C   0  0  0  0  0  0  0  0  0  0  0  0
   11.8909    0.8093    0.0000 C   0  0  0  0  0  0  0  0  0  0  0  0
   12.8371    1.1141    0.0000 C   0  0  0  0  0  0  0  0  0  0  0  0
   13.1478   -1.4459    0.0000 C   0  0  0  0  0  0  0  0  0  0  0  0
   11.0249    1.3093    0.0000 C   0  0  0  0  0  0  0  0  0  0  0  0
   11.0249   -0.6907    0.0000 C   0  0  0  0  0  0  0  0  0  0  0  0
   14.4207    0.3093    0.0000 C   0  0  0  0  0  0  0  0  0  0  0  0
   14.1263   -1.6521    0.0000 C   0  0  0  0  0  0  0  0  0  0  0  0
   10.1588    0.8093    0.0000 C   0  0  0  0  0  0  0  0  0  0  0  0
   13.1478    2.0646    0.0000 C   0  0  0  0  0  0  0  0  0  0  0  0
   10.1588   -0.1907    0.0000 C   0  0  0  0  0  0  0  0  0  0  0  0
   14.7941   -0.9078    0.0000 C   0  0  0  0  0  0  0  0  0  0  0  0
   14.4369   -2.6027    0.0000 C   0  0  0  0  0  0  0  0  0  0  0  0
   14.1263    2.2708    0.0000 C   0  0  0  0  0  0  0  0  0  0  0  0
    8.4268    0.8093    0.0000 C   0  0  0  0  0  0  0  0  0  0  0  0
   15.7726   -1.1141    0.0000 C   0  0  0  0  0  0  0  0  0  0  0  0
   15.4154   -2.8089    0.0000 C   0  0  0  0  0  0  0  0  0  0  0  0
   16.0833   -2.0646    0.0000 C   0  0  0  0  0  0  0  0  0  0  0  0
    7.5608    1.3093    0.0000 C   0  0  0  0  0  0  0  0  0  0  0  0
    6.6472    0.9026    0.0000 C   0  0  0  0  0  0  0  0  0  0  0  0
    4.9836    1.5412    0.0000 C   0  0  0  0  0  0  0  0  0  0  0  0
    4.5768    0.6277    0.0000 C   0  0  0  0  0  0  0  0  0  0  0  0
    4.3958    2.3502    0.0000 C   0  0  0  0  0  0  0  0  0  0  0  0
    3.5823    0.5231    0.0000 C   0  0  0  0  0  0  0  0  0  0  0  0
    3.4013    2.2457    0.0000 C   0  0  0  0  0  0  0  0  0  0  0  0
    2.9945    1.3322    0.0000 C   0  0  0  0  0  0  0  0  0  0  0  0
   12.5340   -1.5333    0.0000 H   0  0  0  0  0  0  0  0  0  0  0  0
   13.1272   -2.0656    0.0000 H   0  0  0  0  0  0  0  0  0  0  0  0
   11.0249    1.9293    0.0000 H   0  0  0  0  0  0  0  0  0  0  0  0
   11.0249   -1.3107    0.0000 H   0  0  0  0  0  0  0  0  0  0  0  0
   14.4207   -0.3107    0.0000 H   0  0  0  0  0  0  0  0  0  0  0  0
   15.0407    0.3093    0.0000 H   0  0  0  0  0  0  0  0  0  0  0  0
   14.4207    0.9293    0.0000 H   0  0  0  0  0  0  0  0  0  0  0  0
    9.6219   -0.5007    0.0000 H   0  0  0  0  0  0  0  0  0  0  0  0
   14.6015   -0.3185    0.0000 H   0  0  0  0  0  0  0  0  0  0  0  0
   14.0229   -3.0641    0.0000 H   0  0  0  0  0  0  0  0  0  0  0  0
   14.2541    1.6641    0.0000 H   0  0  0  0  0  0  0  0  0  0  0  0
   14.7330    2.3987    0.0000 H   0  0  0  0  0  0  0  0  0  0  0  0
   13.9984    2.8775    0.0000 H   0  0  0  0  0  0  0  0  0  0  0  0
    8.0283    0.3344    0.0000 H   0  0  0  0  0  0  0  0  0  0  0  0
    8.8253    0.3344    0.0000 H   0  0  0  0  0  0  0  0  0  0  0  0
   16.1867   -0.6526    0.0000 H   0  0  0  0  0  0  0  0  0  0  0  0
   15.6081   -3.3982    0.0000 H   0  0  0  0  0  0  0  0  0  0  0  0
   16.6900   -2.1924    0.0000 H   0  0  0  0  0  0  0  0  0  0  0  0
    6.5183    0.2961    0.0000 H   0  0  0  0  0  0  0  0  0  0  0  0
    4.9413    0.1261    0.0000 H   0  0  0  0  0  0  0  0  0  0  0  0
    4.6480    2.9166    0.0000 H   0  0  0  0  0  0  0  0  0  0  0  0
    3.3301   -0.0433    0.0000 H   0  0  0  0  0  0  0  0  0  0  0  0
    3.0368    2.7473    0.0000 H   0  0  0  0  0  0  0  0  0  0  0  0
  1 34  1  0  0  0  0
  2 17  1  0  0  0  0
  2 23  1  0  0  0  0
  3 18  2  0  0  0  0
  4  8  1  0  0  0  0
  4  9  1  0  0  0  0
  4 12  1  0  0  0  0
  5  7  1  0  0  0  0
  5 28  1  0  0  0  0
  5 29  1  0  0  0  0
  6  7  2  0  0  0  0
  6 27  1  0  0  0  0
  8 10  2  0  0  0  0
  8 14  1  0  0  0  0
  9 11  2  0  0  0  0
  9 15  1  0  0  0  0
 10 11  1  0  0  0  0
 10 13  1  0  0  0  0
 11 18  1  0  0  0  0
 12 16  1  0  0  0  0
 12 35  1  0  0  0  0
 12 36  1  0  0  0  0
 13 17  2  0  0  0  0
 13 37  1  0  0  0  0
 14 19  2  0  0  0  0
 14 38  1  0  0  0  0
 15 39  1  0  0  0  0
 15 40  1  0  0  0  0
 15 41  1  0  0  0  0
 16 20  2  0  0  0  0
 16 21  1  0  0  0  0
 17 19  1  0  0  0  0
 18 22  1  0  0  0  0
 19 42  1  0  0  0  0
 20 24  1  0  0  0  0
 20 43  1  0  0  0  0
 21 25  2  0  0  0  0
 21 44  1  0  0  0  0
 22 45  1  0  0  0  0
 22 46  1  0  0  0  0
 22 47  1  0  0  0  0
 23 27  1  0  0  0  0
 23 48  1  0  0  0  0
 23 49  1  0  0  0  0
 24 26  2  0  0  0  0
 24 50  1  0  0  0  0
 25 26  1  0  0  0  0
 25 51  1  0  0  0  0
 26 52  1  0  0  0  0
 27 28  2  0  0  0  0
 28 53  1  0  0  0  0
 29 30  2  0  0  0  0
 29 31  1  0  0  0  0
 30 32  1  0  0  0  0
 30 54  1  0  0  0  0
 31 33  2  0  0  0  0
 31 55  1  0  0  0  0
 32 34  2  0  0  0  0
 32 56  1  0  0  0  0
 33 34  1  0  0  0  0
 33 57  1  0  0  0  0
M  END
> <PUBCHEM_COMPOUND_CID>
155553051

> <PUBCHEM_COMPOUND_CANONICALIZED>
1

> <PUBCHEM_CACTVS_COMPLEXITY>
682

> <PUBCHEM_CACTVS_HBOND_ACCEPTOR>
4

> <PUBCHEM_CACTVS_HBOND_DONOR>
0

> <PUBCHEM_CACTVS_ROTATABLE_BOND>
7

> <PUBCHEM_CACTVS_SUBSKEYS>
AAADceB7sAAAEAAAAAAAAAAAAAAAAWLAAAAwYMAAAAAAAFgB/AAAHgBIAAABrAzhngY+xvMMFACqA7R3RASCjCQ1siQY2CE+fPgOZvrEtZuXOajmwBHI61e83PPOgEAhAAACAAAAgEIAAAQAAAAAAAAAAA==

> <PUBCHEM_IUPAC_OPENEYE_NAME>
1-[1-benzyl-5-[[1-(4-bromophenyl)triazol-4-yl]methoxy]-2-methyl-indol-3-yl]ethanone

> <PUBCHEM_IUPAC_CAS_NAME>
1-[5-[[1-(4-bromophenyl)-4-triazolyl]methoxy]-2-methyl-1-(phenylmethyl)-3-indolyl]ethanone

> <PUBCHEM_IUPAC_NAME_MARKUP>
1-[1-benzyl-5-[[1-(4-bromophenyl)triazol-4-yl]methoxy]-2-methylindol-3-yl]ethanone

> <PUBCHEM_IUPAC_NAME>
1-[1-benzyl-5-[[1-(4-bromophenyl)triazol-4-yl]methoxy]-2-methylindol-3-yl]ethanone

> <PUBCHEM_IUPAC_SYSTEMATIC_NAME>
1-[5-[[1-(4-bromophenyl)-1,2,3-triazol-4-yl]methoxy]-2-methyl-1-(phenylmethyl)indol-3-yl]ethanone

> <PUBCHEM_IUPAC_TRADITIONAL_NAME>
1-[1-benzyl-5-[[1-(4-bromophenyl)triazol-4-yl]methoxy]-2-methyl-indol-3-yl]ethanone

> <PUBCHEM_IUPAC_INCHI>
InChI=1S/C27H23BrN4O2/c1-18-27(19(2)33)25-14-24(12-13-26(25)31(18)15-20-6-4-3-5-7-20)34-17-22-16-32(30-29-22)23-10-8-21(28)9-11-23/h3-14,16H,15,17H2,1-2H3

> <PUBCHEM_IUPAC_INCHIKEY>
SJXBIRVGNOAQRT-UHFFFAOYSA-N

> <PUBCHEM_XLOGP3_AA>
5.3

> <PUBCHEM_EXACT_MASS>
514.10044

> <PUBCHEM_MOLECULAR_FORMULA>
C27H23BrN4O2

> <PUBCHEM_MOLECULAR_WEIGHT>
515.4

> <PUBCHEM_CACTVS_TPSA>
61.9

> <PUBCHEM_MONOISOTOPIC_WEIGHT>
514.10044

> <PUBCHEM_TOTAL_CHARGE>
0

> <PUBCHEM_HEAVY_ATOM_COUNT>
34

> <PUBCHEM_ATOM_DEF_STEREO_COUNT>
0

> <PUBCHEM_ATOM_UDEF_STEREO_COUNT>
0

> <PUBCHEM_BOND_DEF_STEREO_COUNT>
0

> <PUBCHEM_BOND_UDEF_STEREO_COUNT>
0

> <PUBCHEM_ISOTOPIC_ATOM_COUNT>
0

> <PUBCHEM_COMPONENT_COUNT>
1

> <PUBCHEM_CACTVS_TAUTO_COUNT>
-1

> <PUBCHEM_COORDINATE_TYPE>
1
5
255

> <PUBCHEM_BONDANNOTATIONS>
10  11  8
10  13  8
13  17  8
14  19  8
16  20  8
16  21  8
17  19  8
20  24  8
21  25  8
24  26  8
25  26  8
27  28  8
29  30  8
29  31  8
30  32  8
31  33  8
32  34  8
33  34  8
4  8  8
4  9  8
5  28  8
5  7  8
6  27  8
6  7  8
8  10  8
8  14  8
9  11  8

$$$$
169450171
  -OEChem-07082511212D

 45 47  0     0  0  0  0  0  0999 V2000
    4.5981    4.2500    0.0000 Br  0  0  0  0  0  0  0  0  0  0  0  0
    2.8660   -1.7500    0.0000 O   0  0  0  0  0  0  0  0  0  0  0  0
    4.5981   -1.7500    0.0000 N   0  0  0  0  0  0  0  0  0  0  0  0
    2.0000    0.7500    0.0000 N   0  0  0  0  0  0  0  0  0  0  0  0
    4.5981    0.2500    0.0000 C   0  0  0  0  0  0  0  0  0  0  0  0
    5.4641   -1.2500    0.0000 C   0  0  0  0  0  0  0  0  0  0  0  0
    5.4641   -0.2500    0.0000 C   0  0  0  0  0  0  0  0  0  0  0  0
    6.3301   -1.7500    0.0000 C   0  0  0  0  0  0  0  0  0  0  0  0
    3.7320   -0.2500    0.0000 C   0  0  0  0  0  0  0  0  0  0  0  0
    4.5981    1.2500    0.0000 C   0  0  0  0  0  0  0  0  0  0  0  0
    3.7320   -1.2500    0.0000 C   0  0  0  0  0  0  0  0  0  0  0  0
    2.8660   -2.7500    0.0000 C   0  0  0  0  0  0  0  0  0  0  0  0
    7.1962   -1.2500    0.0000 C   0  0  0  0  0  0  0  0  0  0  0  0
    6.3301   -2.7500    0.0000 C   0  0  0  0  0  0  0  0  0  0  0  0
    2.0000   -3.2500    0.0000 C   0  0  0  0  0  0  0  0  0  0  0  0
    8.0622   -2.7500    0.0000 C   0  0  0  0  0  0  0  0  0  0  0  0
    5.4641    1.7500    0.0000 C   0  0  0  0  0  0  0  0  0  0  0  0
    3.7320    1.7500    0.0000 C   0  0  0  0  0  0  0  0  0  0  0  0
    8.0622   -1.7500    0.0000 C   0  0  0  0  0  0  0  0  0  0  0  0
    7.1962   -3.2500    0.0000 C   0  0  0  0  0  0  0  0  0  0  0  0
    5.4641    2.7500    0.0000 C   0  0  0  0  0  0  0  0  0  0  0  0
    3.7320    2.7500    0.0000 C   0  0  0  0  0  0  0  0  0  0  0  0
    2.0000   -4.2500    0.0000 C   0  0  0  0  0  0  0  0  0  0  0  0
    8.9282   -3.2500    0.0000 C   0  0  0  0  0  0  0  0  0  0  0  0
    4.5981    3.2500    0.0000 C   0  0  0  0  0  0  0  0  0  0  0  0
    2.8660    0.2500    0.0000 C   0  0  0  0  0  0  0  0  0  0  0  0
    6.0010    0.0600    0.0000 H   0  0  0  0  0  0  0  0  0  0  0  0
    3.0781   -3.3326    0.0000 H   0  0  0  0  0  0  0  0  0  0  0  0
    3.4766   -2.6423    0.0000 H   0  0  0  0  0  0  0  0  0  0  0  0
    7.1962   -0.6300    0.0000 H   0  0  0  0  0  0  0  0  0  0  0  0
    5.7932   -3.0600    0.0000 H   0  0  0  0  0  0  0  0  0  0  0  0
    1.7880   -2.6674    0.0000 H   0  0  0  0  0  0  0  0  0  0  0  0
    1.3894   -3.3577    0.0000 H   0  0  0  0  0  0  0  0  0  0  0  0
    6.0010    1.4400    0.0000 H   0  0  0  0  0  0  0  0  0  0  0  0
    3.1951    1.4400    0.0000 H   0  0  0  0  0  0  0  0  0  0  0  0
    8.5991   -1.4400    0.0000 H   0  0  0  0  0  0  0  0  0  0  0  0
    7.1962   -3.8700    0.0000 H   0  0  0  0  0  0  0  0  0  0  0  0
    6.0010    3.0600    0.0000 H   0  0  0  0  0  0  0  0  0  0  0  0
    3.1951    3.0600    0.0000 H   0  0  0  0  0  0  0  0  0  0  0  0
    1.3800   -4.2500    0.0000 H   0  0  0  0  0  0  0  0  0  0  0  0
    2.0000   -4.8700    0.0000 H   0  0  0  0  0  0  0  0  0  0  0  0
    2.6200   -4.2500    0.0000 H   0  0  0  0  0  0  0  0  0  0  0  0
    8.6182   -3.7869    0.0000 H   0  0  0  0  0  0  0  0  0  0  0  0
    9.4651   -3.5600    0.0000 H   0  0  0  0  0  0  0  0  0  0  0  0
    9.2382   -2.7131    0.0000 H   0  0  0  0  0  0  0  0  0  0  0  0
  1 25  1  0  0  0  0
  2 11  1  0  0  0  0
  2 12  1  0  0  0  0
  3  6  2  0  0  0  0
  3 11  1  0  0  0  0
  4 26  3  0  0  0  0
  5  7  2  0  0  0  0
  5  9  1  0  0  0  0
  5 10  1  0  0  0  0
  6  7  1  0  0  0  0
  6  8  1  0  0  0  0
  7 27  1  0  0  0  0
  8 13  2  0  0  0  0
  8 14  1  0  0  0  0
  9 11  2  0  0  0  0
  9 26  1  0  0  0  0
 10 17  2  0  0  0  0
 10 18  1  0  0  0  0
 12 15  1  0  0  0  0
 12 28  1  0  0  0  0
 12 29  1  0  0  0  0
 13 19  1  0  0  0  0
 13 30  1  0  0  0  0
 14 20  2  0  0  0  0
 14 31  1  0  0  0  0
 15 23  1  0  0  0  0
 15 32  1  0  0  0  0
 15 33  1  0  0  0  0
 16 19  2  0  0  0  0
 16 20  1  0  0  0  0
 16 24  1  0  0  0  0
 17 21  1  0  0  0  0
 17 34  1  0  0  0  0
 18 22  2  0  0  0  0
 18 35  1  0  0  0  0
 19 36  1  0  0  0  0
 20 37  1  0  0  0  0
 21 25  2  0  0  0  0
 21 38  1  0  0  0  0
 22 25  1  0  0  0  0
 22 39  1  0  0  0  0
 23 40  1  0  0  0  0
 23 41  1  0  0  0  0
 23 42  1  0  0  0  0
 24 43  1  0  0  0  0
 24 44  1  0  0  0  0
 24 45  1  0  0  0  0
M  END
> <PUBCHEM_COMPOUND_CID>
169450171

> <PUBCHEM_COMPOUND_CANONICALIZED>
1

> <PUBCHEM_CACTVS_COMPLEXITY>
474

> <PUBCHEM_CACTVS_HBOND_ACCEPTOR>
3

> <PUBCHEM_CACTVS_HBOND_DONOR>
0

> <PUBCHEM_CACTVS_ROTATABLE_BOND>
5

> <PUBCHEM_CACTVS_SUBSKEYS>
AAADceB7IAAAEAAAAAAAAAAAAAAAAAAAAAA8YIAAAAAAAAAB0AAAHgBAAAABrAihngIyhJIIFACwByRiRACiiCAhIiQImCA0bLgMpuLEsZuOOCjkwBHI6h+Q0OEOwgAAAAAAAACEAAAAAAAAAAAAAAAAAA==

> <PUBCHEM_IUPAC_OPENEYE_NAME>
4-(4-bromophenyl)-2-propoxy-6-(p-tolyl)pyridine-3-carbonitrile

> <PUBCHEM_IUPAC_CAS_NAME>
4-(4-bromophenyl)-6-(4-methylphenyl)-2-propoxy-3-pyridinecarbonitrile

> <PUBCHEM_IUPAC_NAME_MARKUP>
4-(4-bromophenyl)-6-(4-methylphenyl)-2-propoxypyridine-3-carbonitrile

> <PUBCHEM_IUPAC_NAME>
4-(4-bromophenyl)-6-(4-methylphenyl)-2-propoxypyridine-3-carbonitrile

> <PUBCHEM_IUPAC_SYSTEMATIC_NAME>
4-(4-bromophenyl)-6-(4-methylphenyl)-2-propoxy-pyridine-3-carbonitrile

> <PUBCHEM_IUPAC_TRADITIONAL_NAME>
4-(4-bromophenyl)-2-propoxy-6-(p-tolyl)nicotinonitrile

> <PUBCHEM_IUPAC_INCHI>
InChI=1S/C22H19BrN2O/c1-3-12-26-22-20(14-24)19(16-8-10-18(23)11-9-16)13-21(25-22)17-6-4-15(2)5-7-17/h4-11,13H,3,12H2,1-2H3

> <PUBCHEM_IUPAC_INCHIKEY>
DQIUWEBTLVAWQX-UHFFFAOYSA-N

> <PUBCHEM_XLOGP3_AA>
6.1

> <PUBCHEM_EXACT_MASS>
406.06808

> <PUBCHEM_MOLECULAR_FORMULA>
C22H19BrN2O

> <PUBCHEM_MOLECULAR_WEIGHT>
407.3

> <PUBCHEM_CACTVS_TPSA>
45.9

> <PUBCHEM_MONOISOTOPIC_WEIGHT>
406.06808

> <PUBCHEM_TOTAL_CHARGE>
0

> <PUBCHEM_HEAVY_ATOM_COUNT>
26

> <PUBCHEM_ATOM_DEF_STEREO_COUNT>
0

> <PUBCHEM_ATOM_UDEF_STEREO_COUNT>
0

> <PUBCHEM_BOND_DEF_STEREO_COUNT>
0

> <PUBCHEM_BOND_UDEF_STEREO_COUNT>
0

> <PUBCHEM_ISOTOPIC_ATOM_COUNT>
0

> <PUBCHEM_COMPONENT_COUNT>
1

> <PUBCHEM_CACTVS_TAUTO_COUNT>
-1

> <PUBCHEM_COORDINATE_TYPE>
1
5
255

> <PUBCHEM_BONDANNOTATIONS>
10  17  8
10  18  8
13  19  8
14  20  8
16  19  8
16  20  8
17  21  8
18  22  8
21  25  8
22  25  8
3  11  8
3  6  8
5  7  8
5  9  8
6  7  8
8  13  8
8  14  8
9  11  8

$$$$
169450203
  -OEChem-07082511212D

 43 46  0     1  0  0  0  0  0999 V2000
    6.6672   -0.6156    0.0000 S   0  0  0  0  0  0  0  0  0  0  0  0
    3.8193    3.3556    0.0000 S   0  0  0  0  0  0  0  0  0  0  0  0
    2.8660   -0.9434    0.0000 O   0  0  0  0  0  0  0  0  0  0  0  0
    6.3301   -2.9434    0.0000 O   0  0  0  0  0  0  0  0  0  0  0  0
    8.9272    0.6444    0.0000 O   0  0  0  0  0  0  0  0  0  0  0  0
    5.4071    0.6444    0.0000 N   0  0  0  0  0  0  0  0  0  0  0  0
    5.0981    1.5955    0.0000 N   0  0  0  0  0  0  0  0  0  0  0  0
    7.1672    0.9232    0.0000 N   0  0  0  0  0  0  0  0  0  0  0  0
    4.5981    0.0566    0.0000 C   0  0  3  0  0  0  0  0  0  0  0  0
    3.7891    0.6444    0.0000 C   0  0  0  0  0  0  0  0  0  0  0  0
    4.5981   -0.9434    0.0000 C   0  0  0  0  0  0  0  0  0  0  0  0
    4.0981    1.5955    0.0000 C   0  0  0  0  0  0  0  0  0  0  0  0
    6.3582    0.3354    0.0000 C   0  0  0  0  0  0  0  0  0  0  0  0
    3.7320   -1.4434    0.0000 C   0  0  0  0  0  0  0  0  0  0  0  0
    5.4641   -1.4434    0.0000 C   0  0  0  0  0  0  0  0  0  0  0  0
    3.5103    2.4045    0.0000 C   0  0  0  0  0  0  0  0  0  0  0  0
    5.4641   -2.4434    0.0000 C   0  0  0  0  0  0  0  0  0  0  0  0
    3.7320   -2.4434    0.0000 C   0  0  0  0  0  0  0  0  0  0  0  0
    4.5981   -2.9434    0.0000 C   0  0  0  0  0  0  0  0  0  0  0  0
    2.5103    2.4045    0.0000 C   0  0  0  0  0  0  0  0  0  0  0  0
    7.6672   -0.6156    0.0000 C   0  0  0  0  0  0  0  0  0  0  0  0
    7.9762    0.3354    0.0000 C   0  0  0  0  0  0  0  0  0  0  0  0
    2.2013    3.3556    0.0000 C   0  0  0  0  0  0  0  0  0  0  0  0
    3.0103    3.9434    0.0000 C   0  0  0  0  0  0  0  0  0  0  0  0
    2.0000   -1.4434    0.0000 C   0  0  0  0  0  0  0  0  0  0  0  0
    6.3301   -3.9434    0.0000 C   0  0  0  0  0  0  0  0  0  0  0  0
    5.1505   -0.2248    0.0000 H   0  0  0  0  0  0  0  0  0  0  0  0
    3.2227    0.8966    0.0000 H   0  0  0  0  0  0  0  0  0  0  0  0
    3.4791    0.1075    0.0000 H   0  0  0  0  0  0  0  0  0  0  0  0
    6.0010   -1.1334    0.0000 H   0  0  0  0  0  0  0  0  0  0  0  0
    3.1951   -2.7534    0.0000 H   0  0  0  0  0  0  0  0  0  0  0  0
    4.5981   -3.5634    0.0000 H   0  0  0  0  0  0  0  0  0  0  0  0
    2.1459    1.9029    0.0000 H   0  0  0  0  0  0  0  0  0  0  0  0
    7.6024   -1.2322    0.0000 H   0  0  0  0  0  0  0  0  0  0  0  0
    8.2736   -0.7445    0.0000 H   0  0  0  0  0  0  0  0  0  0  0  0
    1.6116    3.5472    0.0000 H   0  0  0  0  0  0  0  0  0  0  0  0
    3.0103    4.5634    0.0000 H   0  0  0  0  0  0  0  0  0  0  0  0
    1.6900   -0.9064    0.0000 H   0  0  0  0  0  0  0  0  0  0  0  0
    1.4631   -1.7534    0.0000 H   0  0  0  0  0  0  0  0  0  0  0  0
    2.3100   -1.9803    0.0000 H   0  0  0  0  0  0  0  0  0  0  0  0
    5.7101   -3.9434    0.0000 H   0  0  0  0  0  0  0  0  0  0  0  0
    6.3301   -4.5634    0.0000 H   0  0  0  0  0  0  0  0  0  0  0  0
    6.9501   -3.9434    0.0000 H   0  0  0  0  0  0  0  0  0  0  0  0
  1 13  1  0  0  0  0
  1 21  1  0  0  0  0
  2 16  1  0  0  0  0
  2 24  1  0  0  0  0
  3 14  1  0  0  0  0
  3 25  1  0  0  0  0
  4 17  1  0  0  0  0
  4 26  1  0  0  0  0
  5 22  2  0  0  0  0
  6  7  1  0  0  0  0
  6  9  1  0  0  0  0
  6 13  1  0  0  0  0
  7 12  2  0  0  0  0
  8 13  2  0  0  0  0
  8 22  1  0  0  0  0
  9 10  1  0  0  0  0
  9 11  1  0  0  0  0
  9 27  1  0  0  0  0
 10 12  1  0  0  0  0
 10 28  1  0  0  0  0
 10 29  1  0  0  0  0
 11 14  2  0  0  0  0
 11 15  1  0  0  0  0
 12 16  1  0  0  0  0
 14 18  1  0  0  0  0
 15 17  2  0  0  0  0
 15 30  1  0  0  0  0
 16 20  2  0  0  0  0
 17 19  1  0  0  0  0
 18 19  2  0  0  0  0
 18 31  1  0  0  0  0
 19 32  1  0  0  0  0
 20 23  1  0  0  0  0
 20 33  1  0  0  0  0
 21 22  1  0  0  0  0
 21 34  1  0  0  0  0
 21 35  1  0  0  0  0
 23 24  2  0  0  0  0
 23 36  1  0  0  0  0
 24 37  1  0  0  0  0
 25 38  1  0  0  0  0
 25 39  1  0  0  0  0
 25 40  1  0  0  0  0
 26 41  1  0  0  0  0
 26 42  1  0  0  0  0
 26 43  1  0  0  0  0
M  END
> <PUBCHEM_COMPOUND_CID>
169450203

> <PUBCHEM_COMPOUND_CANONICALIZED>
1

> <PUBCHEM_CACTVS_COMPLEXITY>
612

> <PUBCHEM_CACTVS_HBOND_ACCEPTOR>
6

> <PUBCHEM_CACTVS_HBOND_DONOR>
0

> <PUBCHEM_CACTVS_ROTATABLE_BOND>
5

> <PUBCHEM_CACTVS_SUBSKEYS>
AAADceB7MABgAAAAAAAAAAAAAAAAASIEAAAwAAAAAAAAAAABwAAAHgQIAAAADCzF2AazB4IABAisAyFyNACTGIFgKBBZiBg+DJgMJqKkuRuEMChmyBEoqAfwwPAOAQABAAAIAAACAAIAABAAAAAAAAAAAA==

> <PUBCHEM_IUPAC_OPENEYE_NAME>
2-[3-(2,5-dimethoxyphenyl)-5-(2-thienyl)-3,4-dihydropyrazol-2-yl]thiazol-4-one

> <PUBCHEM_IUPAC_CAS_NAME>
2-[3-(2,5-dimethoxyphenyl)-5-thiophen-2-yl-3,4-dihydropyrazol-2-yl]-4-thiazolone

> <PUBCHEM_IUPAC_NAME_MARKUP>
2-[3-(2,5-dimethoxyphenyl)-5-thiophen-2-yl-3,4-dihydropyrazol-2-yl]-1,3-thiazol-4-one

> <PUBCHEM_IUPAC_NAME>
2-[3-(2,5-dimethoxyphenyl)-5-thiophen-2-yl-3,4-dihydropyrazol-2-yl]-1,3-thiazol-4-one

> <PUBCHEM_IUPAC_SYSTEMATIC_NAME>
2-[3-(2,5-dimethoxyphenyl)-5-thiophen-2-yl-3,4-dihydropyrazol-2-yl]-1,3-thiazol-4-one

> <PUBCHEM_IUPAC_TRADITIONAL_NAME>
2-[5-(2,5-dimethoxyphenyl)-3-(2-thienyl)-2-pyrazolin-1-yl]-2-thiazolin-4-one

> <PUBCHEM_IUPAC_INCHI>
InChI=1S/C18H17N3O3S2/c1-23-11-5-6-15(24-2)12(8-11)14-9-13(16-4-3-7-25-16)20-21(14)18-19-17(22)10-26-18/h3-8,14H,9-10H2,1-2H3

> <PUBCHEM_IUPAC_INCHIKEY>
UMCNXIONKYGWEL-UHFFFAOYSA-N

> <PUBCHEM_XLOGP3_AA>
3.3

> <PUBCHEM_EXACT_MASS>
387.07113376

> <PUBCHEM_MOLECULAR_FORMULA>
C18H17N3O3S2

> <PUBCHEM_MOLECULAR_WEIGHT>
387.5

> <PUBCHEM_CACTVS_TPSA>
117

> <PUBCHEM_MONOISOTOPIC_WEIGHT>
387.07113376

> <PUBCHEM_TOTAL_CHARGE>
0

> <PUBCHEM_HEAVY_ATOM_COUNT>
26

> <PUBCHEM_ATOM_DEF_STEREO_COUNT>
0

> <PUBCHEM_ATOM_UDEF_STEREO_COUNT>
1

> <PUBCHEM_BOND_DEF_STEREO_COUNT>
0

> <PUBCHEM_BOND_UDEF_STEREO_COUNT>
0

> <PUBCHEM_ISOTOPIC_ATOM_COUNT>
0

> <PUBCHEM_COMPONENT_COUNT>
1

> <PUBCHEM_CACTVS_TAUTO_COUNT>
-1

> <PUBCHEM_COORDINATE_TYPE>
1
5
255

> <PUBCHEM_BONDANNOTATIONS>
11  14  8
11  15  8
14  18  8
15  17  8
16  20  8
17  19  8
18  19  8
2  16  8
2  24  8
20  23  8
23  24  8
9  11  3

$$$$
456247
  -OEChem-07082511212D

 20 21  0     0  0  0  0  0  0999 V2000
    2.0000    1.3692    0.0000 Br  0  0  0  0  0  0  0  0  0  0  0  0
    5.5301    1.3450    0.0000 N   0  0  0  0  0  0  0  0  0  0  0  0
    6.3961   -0.1550    0.0000 N   0  0  0  0  0  0  0  0  0  0  0  0
    5.5301   -1.6550    0.0000 N   0  0  0  0  0  0  0  0  0  0  0  0
    7.2622    1.3450    0.0000 N   0  0  0  0  0  0  0  0  0  0  0  0
    4.6641   -0.1550    0.0000 C   0  0  0  0  0  0  0  0  0  0  0  0
    4.6641    0.8450    0.0000 C   0  0  0  0  0  0  0  0  0  0  0  0
    5.5301   -0.6550    0.0000 C   0  0  0  0  0  0  0  0  0  0  0  0
    3.7702   -0.6897    0.0000 C   0  0  0  0  0  0  0  0  0  0  0  0
    3.7702    1.3797    0.0000 C   0  0  0  0  0  0  0  0  0  0  0  0
    2.8641   -0.1758    0.0000 C   0  0  0  0  0  0  0  0  0  0  0  0
    2.8641    0.8658    0.0000 C   0  0  0  0  0  0  0  0  0  0  0  0
    6.3961    0.8450    0.0000 C   0  0  0  0  0  0  0  0  0  0  0  0
    3.7773   -1.3096    0.0000 H   0  0  0  0  0  0  0  0  0  0  0  0
    3.7773    1.9996    0.0000 H   0  0  0  0  0  0  0  0  0  0  0  0
    2.3284   -0.4879    0.0000 H   0  0  0  0  0  0  0  0  0  0  0  0
    6.0671   -1.9650    0.0000 H   0  0  0  0  0  0  0  0  0  0  0  0
    4.9932   -1.9650    0.0000 H   0  0  0  0  0  0  0  0  0  0  0  0
    7.2622    1.9650    0.0000 H   0  0  0  0  0  0  0  0  0  0  0  0
    7.7991    1.0350    0.0000 H   0  0  0  0  0  0  0  0  0  0  0  0
  1 12  1  0  0  0  0
  2  7  1  0  0  0  0
  2 13  2  0  0  0  0
  3  8  2  0  0  0  0
  3 13  1  0  0  0  0
  4  8  1  0  0  0  0
  4 17  1  0  0  0  0
  4 18  1  0  0  0  0
  5 13  1  0  0  0  0
  5 19  1  0  0  0  0
  5 20  1  0  0  0  0
  6  7  2  0  0  0  0
  6  8  1  0  0  0  0
  6  9  1  0  0  0  0
  7 10  1  0  0  0  0
  9 11  2  0  0  0  0
  9 14  1  0  0  0  0
 10 12  2  0  0  0  0
 10 15  1  0  0  0  0
 11 12  1  0  0  0  0
 11 16  1  0  0  0  0
M  END
> <PUBCHEM_COMPOUND_CID>
456247

> <PUBCHEM_COMPOUND_CANONICALIZED>
1

> <PUBCHEM_CACTVS_COMPLEXITY>
189

> <PUBCHEM_CACTVS_HBOND_ACCEPTOR>
4

> <PUBCHEM_CACTVS_HBOND_DONOR>
2

> <PUBCHEM_CACTVS_ROTATABLE_BOND>
0

> <PUBCHEM_CACTVS_SUBSKEYS>
AAADcYBzgAAAEAAAAAAAAAAAAAAAAAAAAAA8QAAAAAAAAACx8AAAHABQAAABrAiBHgAx8PZIEACgAyZiZACCgCkhAqQJmCAwZLiIKKLA2dGEJAhogAJIyjcQgAAOAgAAAAECAAAEAAAAAgQAAAAAAAAAAA==

> <PUBCHEM_IUPAC_OPENEYE_NAME>
7-bromoquinazoline-2,4-diamine

> <PUBCHEM_IUPAC_CAS_NAME>
7-bromoquinazoline-2,4-diamine

> <PUBCHEM_IUPAC_NAME_MARKUP>
7-bromoquinazoline-2,4-diamine

> <PUBCHEM_IUPAC_NAME>
7-bromoquinazoline-2,4-diamine

> <PUBCHEM_IUPAC_SYSTEMATIC_NAME>
7-bromanylquinazoline-2,4-diamine

> <PUBCHEM_IUPAC_TRADITIONAL_NAME>
(2-amino-7-bromo-quinazolin-4-yl)amine

> <PUBCHEM_IUPAC_INCHI>
InChI=1S/C8H7BrN4/c9-4-1-2-5-6(3-4)12-8(11)13-7(5)10/h1-3H,(H4,10,11,12,13)

> <PUBCHEM_IUPAC_INCHIKEY>
YPWBLOIRVSSESG-UHFFFAOYSA-N

> <PUBCHEM_XLOGP3>
1.7

> <PUBCHEM_EXACT_MASS>
237.98541

> <PUBCHEM_MOLECULAR_FORMULA>
C8H7BrN4

> <PUBCHEM_MOLECULAR_WEIGHT>
239.07

> <PUBCHEM_CACTVS_TPSA>
77.8

> <PUBCHEM_MONOISOTOPIC_WEIGHT>
237.98541

> <PUBCHEM_TOTAL_CHARGE>
0

> <PUBCHEM_HEAVY_ATOM_COUNT>
13

> <PUBCHEM_ATOM_DEF_STEREO_COUNT>
0

> <PUBCHEM_ATOM_UDEF_STEREO_COUNT>
0

> <PUBCHEM_BOND_DEF_STEREO_COUNT>
0

> <PUBCHEM_BOND_UDEF_STEREO_COUNT>
0

> <PUBCHEM_ISOTOPIC_ATOM_COUNT>
0

> <PUBCHEM_COMPONENT_COUNT>
1

> <PUBCHEM_CACTVS_TAUTO_COUNT>
-1

> <PUBCHEM_COORDINATE_TYPE>
1
5
255

> <PUBCHEM_BONDANNOTATIONS>
10  12  8
11  12  8
2  13  8
2  7  8
3  13  8
3  8  8
6  7  8
6  8  8
6  9  8
7  10  8
9  11  8

$$$$
6917297
  -OEChem-07082511212D

 28 29  0     0  0  0  0  0  0999 V2000
    5.5443    1.2422    0.0000 N   0  0  0  0  0  0  0  0  0  0  0  0
    5.5443   -0.3673    0.0000 N   0  0  0  0  0  0  0  0  0  0  0  0
    7.1279    0.4375    0.0000 N   0  0  0  0  0  0  0  0  0  0  0  0
    8.6279   -0.4286    0.0000 N   0  0  0  0  0  0  0  0  0  0  0  0
    7.1279   -1.2946    0.0000 N   0  0  0  0  0  0  0  0  0  0  0  0
    4.5981    0.9375    0.0000 C   0  0  0  0  0  0  0  0  0  0  0  0
    4.5981   -0.0625    0.0000 C   0  0  0  0  0  0  0  0  0  0  0  0
    2.8660    0.9375    0.0000 C   0  0  0  0  0  0  0  0  0  0  0  0
    2.8660   -0.0625    0.0000 C   0  0  0  0  0  0  0  0  0  0  0  0
    3.7320    1.4375    0.0000 C   0  0  0  0  0  0  0  0  0  0  0  0
    3.7320   -0.5625    0.0000 C   0  0  0  0  0  0  0  0  0  0  0  0
    6.1279    0.4375    0.0000 C   0  0  0  0  0  0  0  0  0  0  0  0
    2.0000    1.4375    0.0000 C   0  0  0  0  0  0  0  0  0  0  0  0
    2.0000   -0.5625    0.0000 C   0  0  0  0  0  0  0  0  0  0  0  0
    7.6279   -0.4286    0.0000 C   0  0  0  0  0  0  0  0  0  0  0  0
    3.7320    2.0575    0.0000 H   0  0  0  0  0  0  0  0  0  0  0  0
    3.7320   -1.1825    0.0000 H   0  0  0  0  0  0  0  0  0  0  0  0
    5.7369    1.8315    0.0000 H   0  0  0  0  0  0  0  0  0  0  0  0
    2.3100    1.9744    0.0000 H   0  0  0  0  0  0  0  0  0  0  0  0
    1.4631    1.7475    0.0000 H   0  0  0  0  0  0  0  0  0  0  0  0
    1.6900    0.9005    0.0000 H   0  0  0  0  0  0  0  0  0  0  0  0
    1.6900   -0.0256    0.0000 H   0  0  0  0  0  0  0  0  0  0  0  0
    1.4631   -0.8725    0.0000 H   0  0  0  0  0  0  0  0  0  0  0  0
    2.3100   -1.0995    0.0000 H   0  0  0  0  0  0  0  0  0  0  0  0
    8.9379   -0.9655    0.0000 H   0  0  0  0  0  0  0  0  0  0  0  0
    8.9379    0.1084    0.0000 H   0  0  0  0  0  0  0  0  0  0  0  0
    7.4379   -1.8315    0.0000 H   0  0  0  0  0  0  0  0  0  0  0  0
    6.5079   -1.2946    0.0000 H   0  0  0  0  0  0  0  0  0  0  0  0
  1  6  1  0  0  0  0
  1 12  1  0  0  0  0
  1 18  1  0  0  0  0
  2  7  1  0  0  0  0
  2 12  2  0  0  0  0
  3 12  1  0  0  0  0
  3 15  2  0  0  0  0
  4 15  1  0  0  0  0
  4 25  1  0  0  0  0
  4 26  1  0  0  0  0
  5 15  1  0  0  0  0
  5 27  1  0  0  0  0
  5 28  1  0  0  0  0
  6  7  2  0  0  0  0
  6 10  1  0  0  0  0
  7 11  1  0  0  0  0
  8  9  1  0  0  0  0
  8 10  2  0  0  0  0
  8 13  1  0  0  0  0
  9 11  2  0  0  0  0
  9 14  1  0  0  0  0
 10 16  1  0  0  0  0
 11 17  1  0  0  0  0
 13 19  1  0  0  0  0
 13 20  1  0  0  0  0
 13 21  1  0  0  0  0
 14 22  1  0  0  0  0
 14 23  1  0  0  0  0
 14 24  1  0  0  0  0
M  END
> <PUBCHEM_COMPOUND_CID>
6917297

> <PUBCHEM_COMPOUND_CANONICALIZED>
1

> <PUBCHEM_CACTVS_COMPLEXITY>
261

> <PUBCHEM_CACTVS_HBOND_ACCEPTOR>
2

> <PUBCHEM_CACTVS_HBOND_DONOR>
3

> <PUBCHEM_CACTVS_ROTATABLE_BOND>
1

> <PUBCHEM_CACTVS_SUBSKEYS>
AAADccBzgAAAAAAAAAAAAAAAAAAAAWAAAAAwAAAAAAAAAFgB8AAAHAAQAAAADAiBHgAz0LbJkACgAyRiZACCgC2hEqABmSAwdJiIaKLAmZGUIAhokAJIyCcQgIAOiAAAQAAQACAQAACAACAAQAAAAAAAAA==

> <PUBCHEM_IUPAC_OPENEYE_NAME>
2-(5,6-dimethyl-1H-benzimidazol-2-yl)guanidine

> <PUBCHEM_IUPAC_CAS_NAME>
2-(5,6-dimethyl-1H-benzimidazol-2-yl)guanidine

> <PUBCHEM_IUPAC_NAME_MARKUP>
2-(5,6-dimethyl-1<I>H</I>-benzimidazol-2-yl)guanidine

> <PUBCHEM_IUPAC_NAME>
2-(5,6-dimethyl-1H-benzimidazol-2-yl)guanidine

> <PUBCHEM_IUPAC_SYSTEMATIC_NAME>
2-(5,6-dimethyl-1H-benzimidazol-2-yl)guanidine

> <PUBCHEM_IUPAC_TRADITIONAL_NAME>
2-(5,6-dimethyl-1H-benzimidazol-2-yl)guanidine

> <PUBCHEM_IUPAC_INCHI>
InChI=1S/C10H13N5/c1-5-3-7-8(4-6(5)2)14-10(13-7)15-9(11)12/h3-4H,1-2H3,(H5,11,12,13,14,15)

> <PUBCHEM_IUPAC_INCHIKEY>
ITKFRENCGKAVOT-UHFFFAOYSA-N

> <PUBCHEM_XLOGP3_AA>
1

> <PUBCHEM_EXACT_MASS>
203.11709544

> <PUBCHEM_MOLECULAR_FORMULA>
C10H13N5

> <PUBCHEM_MOLECULAR_WEIGHT>
203.24

> <PUBCHEM_CACTVS_TPSA>
93.1

> <PUBCHEM_MONOISOTOPIC_WEIGHT>
203.11709544

> <PUBCHEM_TOTAL_CHARGE>
0

> <PUBCHEM_HEAVY_ATOM_COUNT>
15

> <PUBCHEM_ATOM_DEF_STEREO_COUNT>
0

> <PUBCHEM_ATOM_UDEF_STEREO_COUNT>
0

> <PUBCHEM_BOND_DEF_STEREO_COUNT>
0

> <PUBCHEM_BOND_UDEF_STEREO_COUNT>
0

> <PUBCHEM_ISOTOPIC_ATOM_COUNT>
0

> <PUBCHEM_COMPONENT_COUNT>
1

> <PUBCHEM_CACTVS_TAUTO_COUNT>
-1

> <PUBCHEM_COORDINATE_TYPE>
1
5
255

> <PUBCHEM_BONDANNOTATIONS>
1  12  8
1  6  8
2  12  8
2  7  8
6  10  8
6  7  8
7  11  8
8  10  8
8  9  8
9  11  8

$$$$
68574770
  -OEChem-07082511212D

 52 52  0     0  0  0  0  0  0999 V2000
    4.8001    0.0000    0.0000 Cl  0  0  0  0  0  0  0  0  0  0  0  0
    4.8671    8.1200    0.0000 O   0  0  0  0  0  0  0  0  0  0  0  0
    6.5991    5.1200    0.0000 O   0  0  0  0  0  0  0  0  0  0  0  0
    0.5369    9.6200    0.0000 O   0  0  0  0  0  0  0  0  0  0  0  0
    1.4030    8.1200    0.0000 O   0  0  0  0  0  0  0  0  0  0  0  0
    9.1972    4.6200    0.0000 N   0  0  0  0  0  0  0  0  0  0  0  0
    8.3312    3.1200    0.0000 N   0  0  0  0  0  0  0  0  0  0  0  0
    6.5991    3.1200    0.0000 N   0  0  0  0  0  0  0  0  0  0  0  0
   10.0632    3.1200    0.0000 N   0  0  0  0  0  0  0  0  0  0  0  0
    5.7331    6.6200    0.0000 C   0  0  0  0  0  0  0  0  0  0  0  0
    4.0010    9.6200    0.0000 C   0  0  0  0  0  0  0  0  0  0  0  0
    5.7331    7.6200    0.0000 C   0  0  0  0  0  0  0  0  0  0  0  0
    3.1350    9.1200    0.0000 C   0  0  0  0  0  0  0  0  0  0  0  0
    4.8671    9.1200    0.0000 C   0  0  0  0  0  0  0  0  0  0  0  0
    6.5991    6.1200    0.0000 C   0  0  0  0  0  0  0  0  0  0  0  0
    2.2690    9.6200    0.0000 C   0  0  0  0  0  0  0  0  0  0  0  0
    7.4651    4.6200    0.0000 C   0  0  0  0  0  0  0  0  0  0  0  0
    4.0010   10.6200    0.0000 C   0  0  0  0  0  0  0  0  0  0  0  0
    8.3312    5.1200    0.0000 C   0  0  0  0  0  0  0  0  0  0  0  0
    5.7331    9.6200    0.0000 C   0  0  0  0  0  0  0  0  0  0  0  0
    8.3312    6.1200    0.0000 C   0  0  0  0  0  0  0  0  0  0  0  0
    4.8671   11.1200    0.0000 C   0  0  0  0  0  0  0  0  0  0  0  0
    5.7331   10.6200    0.0000 C   0  0  0  0  0  0  0  0  0  0  0  0
    7.4651    3.6200    0.0000 C   0  0  0  0  0  0  0  0  0  0  0  0
    9.1972    6.6200    0.0000 C   0  0  0  0  0  0  0  0  0  0  0  0
    1.4030    9.1200    0.0000 C   0  0  0  0  0  0  0  0  0  0  0  0
    9.1972    3.6200    0.0000 C   0  0  0  0  0  0  0  0  0  0  0  0
    5.1225    6.7277    0.0000 H   0  0  0  0  0  0  0  0  0  0  0  0
    5.5210    6.0374    0.0000 H   0  0  0  0  0  0  0  0  0  0  0  0
    6.3437    7.5123    0.0000 H   0  0  0  0  0  0  0  0  0  0  0  0
    5.9451    8.2026    0.0000 H   0  0  0  0  0  0  0  0  0  0  0  0
    2.7365    8.6450    0.0000 H   0  0  0  0  0  0  0  0  0  0  0  0
    3.5335    8.6450    0.0000 H   0  0  0  0  0  0  0  0  0  0  0  0
    7.2097    6.0123    0.0000 H   0  0  0  0  0  0  0  0  0  0  0  0
    6.8112    6.7026    0.0000 H   0  0  0  0  0  0  0  0  0  0  0  0
    2.6675   10.0949    0.0000 H   0  0  0  0  0  0  0  0  0  0  0  0
    1.8705   10.0949    0.0000 H   0  0  0  0  0  0  0  0  0  0  0  0
    3.4641   10.9300    0.0000 H   0  0  0  0  0  0  0  0  0  0  0  0
    6.2700    9.3100    0.0000 H   0  0  0  0  0  0  0  0  0  0  0  0
    8.1191    6.7026    0.0000 H   0  0  0  0  0  0  0  0  0  0  0  0
    7.7206    6.0123    0.0000 H   0  0  0  0  0  0  0  0  0  0  0  0
    4.8671   11.7400    0.0000 H   0  0  0  0  0  0  0  0  0  0  0  0
    6.2700   10.9300    0.0000 H   0  0  0  0  0  0  0  0  0  0  0  0
    9.5072    6.0831    0.0000 H   0  0  0  0  0  0  0  0  0  0  0  0
    9.7341    6.9300    0.0000 H   0  0  0  0  0  0  0  0  0  0  0  0
    8.8872    7.1569    0.0000 H   0  0  0  0  0  0  0  0  0  0  0  0
    6.5991    2.5000    0.0000 H   0  0  0  0  0  0  0  0  0  0  0  0
    6.0622    3.4300    0.0000 H   0  0  0  0  0  0  0  0  0  0  0  0
   10.6002    3.4300    0.0000 H   0  0  0  0  0  0  0  0  0  0  0  0
   10.0632    2.5000    0.0000 H   0  0  0  0  0  0  0  0  0  0  0  0
    0.0000    9.3100    0.0000 H   0  0  0  0  0  0  0  0  0  0  0  0
    5.8001    0.0000    0.0000 H   0  0  0  0  0  0  0  0  0  0  0  0
  1 52  1  0  0  0  0
  2 12  1  0  0  0  0
  2 14  1  0  0  0  0
  3 15  1  0  0  0  0
  3 17  1  0  0  0  0
  4 26  1  0  0  0  0
  4 51  1  0  0  0  0
  5 26  2  0  0  0  0
  6 19  1  0  0  0  0
  6 27  2  0  0  0  0
  7 24  2  0  0  0  0
  7 27  1  0  0  0  0
  8 24  1  0  0  0  0
  8 47  1  0  0  0  0
  8 48  1  0  0  0  0
  9 27  1  0  0  0  0
  9 49  1  0  0  0  0
  9 50  1  0  0  0  0
 10 12  1  0  0  0  0
 10 15  1  0  0  0  0
 10 28  1  0  0  0  0
 10 29  1  0  0  0  0
 11 13  1  0  0  0  0
 11 14  1  0  0  0  0
 11 18  2  0  0  0  0
 12 30  1  0  0  0  0
 12 31  1  0  0  0  0
 13 16  1  0  0  0  0
 13 32  1  0  0  0  0
 13 33  1  0  0  0  0
 14 20  2  0  0  0  0
 15 34  1  0  0  0  0
 15 35  1  0  0  0  0
 16 26  1  0  0  0  0
 16 36  1  0  0  0  0
 16 37  1  0  0  0  0
 17 19  2  0  0  0  0
 17 24  1  0  0  0  0
 18 22  1  0  0  0  0
 18 38  1  0  0  0  0
 19 21  1  0  0  0  0
 20 23  1  0  0  0  0
 20 39  1  0  0  0  0
 21 25  1  0  0  0  0
 21 40  1  0  0  0  0
 21 41  1  0  0  0  0
 22 23  2  0  0  0  0
 22 42  1  0  0  0  0
 23 43  1  0  0  0  0
 25 44  1  0  0  0  0
 25 45  1  0  0  0  0
 25 46  1  0  0  0  0
M  END
> <PUBCHEM_COMPOUND_CID>
68574770

> <PUBCHEM_COMPOUND_CANONICALIZED>
1

> <PUBCHEM_CACTVS_COMPLEXITY>
426

> <PUBCHEM_CACTVS_HBOND_ACCEPTOR>
8

> <PUBCHEM_CACTVS_HBOND_DONOR>
4

> <PUBCHEM_CACTVS_ROTATABLE_BOND>
10

> <PUBCHEM_CACTVS_SUBSKEYS>
AAADceB7uAAEAAAAAAAAAAAAAAAAAAAAAAA8QAAAAAAAAAABwAAAHgAQCAAADAyhngIzvpZIFgCoAybybASCiCkhYKAJmCE3TJiOLjLE+dqHfCjtwBNY6CeY7KzOAAAAAAAIAAAAAAAAABAAAAAAAAAAAA==

> <PUBCHEM_IUPAC_OPENEYE_NAME>
3-[2-[3-(2,4-diamino-6-ethyl-pyrimidin-5-yl)oxypropoxy]phenyl]propanoic acid;hydrochloride

> <PUBCHEM_IUPAC_CAS_NAME>
3-[2-[3-[(2,4-diamino-6-ethyl-5-pyrimidinyl)oxy]propoxy]phenyl]propanoic acid;hydrochloride

> <PUBCHEM_IUPAC_NAME_MARKUP>
3-[2-[3-(2,4-diamino-6-ethylpyrimidin-5-yl)oxypropoxy]phenyl]propanoic acid;hydrochloride

> <PUBCHEM_IUPAC_NAME>
3-[2-[3-(2,4-diamino-6-ethylpyrimidin-5-yl)oxypropoxy]phenyl]propanoic acid;hydrochloride

> <PUBCHEM_IUPAC_SYSTEMATIC_NAME>
3-[2-[3-[2,4-bis(azanyl)-6-ethyl-pyrimidin-5-yl]oxypropoxy]phenyl]propanoic acid;hydrochloride

> <PUBCHEM_IUPAC_TRADITIONAL_NAME>
3-[2-[3-(2,4-diamino-6-ethyl-pyrimidin-5-yl)oxypropoxy]phenyl]propionic acid;hydrochloride

> <PUBCHEM_IUPAC_INCHI>
InChI=1S/C18H24N4O4.ClH/c1-2-13-16(17(19)22-18(20)21-13)26-11-5-10-25-14-7-4-3-6-12(14)8-9-15(23)24;/h3-4,6-7H,2,5,8-11H2,1H3,(H,23,24)(H4,19,20,21,22);1H

> <PUBCHEM_IUPAC_INCHIKEY>
BVRPZXMKYBDROK-UHFFFAOYSA-N

> <PUBCHEM_EXACT_MASS>
396.1564330

> <PUBCHEM_MOLECULAR_FORMULA>
C18H25ClN4O4

> <PUBCHEM_MOLECULAR_WEIGHT>
396.9

> <PUBCHEM_CACTVS_TPSA>
134

> <PUBCHEM_MONOISOTOPIC_WEIGHT>
396.1564330

> <PUBCHEM_TOTAL_CHARGE>
0

> <PUBCHEM_HEAVY_ATOM_COUNT>
27

> <PUBCHEM_ATOM_DEF_STEREO_COUNT>
0

> <PUBCHEM_ATOM_UDEF_STEREO_COUNT>
0

> <PUBCHEM_BOND_DEF_STEREO_COUNT>
0

> <PUBCHEM_BOND_UDEF_STEREO_COUNT>
0

> <PUBCHEM_ISOTOPIC_ATOM_COUNT>
0

> <PUBCHEM_COMPONENT_COUNT>
2

> <PUBCHEM_CACTVS_TAUTO_COUNT>
-1

> <PUBCHEM_COORDINATE_TYPE>
1
5
255

> <PUBCHEM_BONDANNOTATIONS>
11  14  8
11  18  8
14  20  8
17  19  8
17  24  8
18  22  8
20  23  8
22  23  8
6  19  8
6  27  8
7  24  8
7  27  8

$$$$
41526
  -OEChem-07082511212D

 45 46  0     0  0  0  0  0  0999 V2000
    6.0010    3.6550    0.0000 O   0  0  0  0  0  0  0  0  0  0  0  0
    7.7331    1.6550    0.0000 O   0  0  0  0  0  0  0  0  0  0  0  0
    4.2690    1.6550    0.0000 O   0  0  0  0  0  0  0  0  0  0  0  0
    4.2690   -3.3450    0.0000 N   0  0  0  0  0  0  0  0  0  0  0  0
    3.4030   -1.8450    0.0000 N   0  0  0  0  0  0  0  0  0  0  0  0
    6.0010   -3.3450    0.0000 N   0  0  0  0  0  0  0  0  0  0  0  0
    2.5369   -3.3450    0.0000 N   0  0  0  0  0  0  0  0  0  0  0  0
    6.0010    2.6550    0.0000 C   0  0  0  0  0  0  0  0  0  0  0  0
    6.0010    1.6550    0.0000 C   0  0  0  0  0  0  0  0  0  0  0  0
    6.8671    1.1550    0.0000 C   0  0  0  0  0  0  0  0  0  0  0  0
    5.1350    1.1550    0.0000 C   0  0  0  0  0  0  0  0  0  0  0  0
    6.0010   -0.3450    0.0000 C   0  0  0  0  0  0  0  0  0  0  0  0
    7.0010    2.6550    0.0000 C   0  0  0  0  0  0  0  0  0  0  0  0
    5.0010    2.6550    0.0000 C   0  0  0  0  0  0  0  0  0  0  0  0
    6.8671    0.1550    0.0000 C   0  0  0  0  0  0  0  0  0  0  0  0
    5.1350    0.1550    0.0000 C   0  0  0  0  0  0  0  0  0  0  0  0
    6.0010   -1.3450    0.0000 C   0  0  0  0  0  0  0  0  0  0  0  0
    5.1350   -1.8450    0.0000 C   0  0  0  0  0  0  0  0  0  0  0  0
    5.1350   -2.8450    0.0000 C   0  0  0  0  0  0  0  0  0  0  0  0
    4.2690   -1.3450    0.0000 C   0  0  0  0  0  0  0  0  0  0  0  0
    8.5991    1.1550    0.0000 C   0  0  0  0  0  0  0  0  0  0  0  0
    3.4030    1.1550    0.0000 C   0  0  0  0  0  0  0  0  0  0  0  0
    3.4030   -2.8450    0.0000 C   0  0  0  0  0  0  0  0  0  0  0  0
    7.0010    2.0350    0.0000 H   0  0  0  0  0  0  0  0  0  0  0  0
    7.6210    2.6550    0.0000 H   0  0  0  0  0  0  0  0  0  0  0  0
    7.0010    3.2750    0.0000 H   0  0  0  0  0  0  0  0  0  0  0  0
    5.0010    3.2750    0.0000 H   0  0  0  0  0  0  0  0  0  0  0  0
    4.3810    2.6550    0.0000 H   0  0  0  0  0  0  0  0  0  0  0  0
    5.0010    2.0350    0.0000 H   0  0  0  0  0  0  0  0  0  0  0  0
    7.4040   -0.1550    0.0000 H   0  0  0  0  0  0  0  0  0  0  0  0
    4.5981   -0.1550    0.0000 H   0  0  0  0  0  0  0  0  0  0  0  0
    6.2131   -1.9276    0.0000 H   0  0  0  0  0  0  0  0  0  0  0  0
    6.6116   -1.2373    0.0000 H   0  0  0  0  0  0  0  0  0  0  0  0
    6.5380    3.9650    0.0000 H   0  0  0  0  0  0  0  0  0  0  0  0
    4.2690   -0.7250    0.0000 H   0  0  0  0  0  0  0  0  0  0  0  0
    8.2891    0.6181    0.0000 H   0  0  0  0  0  0  0  0  0  0  0  0
    9.1361    0.8450    0.0000 H   0  0  0  0  0  0  0  0  0  0  0  0
    8.9091    1.6919    0.0000 H   0  0  0  0  0  0  0  0  0  0  0  0
    3.0930    1.6919    0.0000 H   0  0  0  0  0  0  0  0  0  0  0  0
    2.8660    0.8450    0.0000 H   0  0  0  0  0  0  0  0  0  0  0  0
    3.7130    0.6181    0.0000 H   0  0  0  0  0  0  0  0  0  0  0  0
    6.0010   -3.9650    0.0000 H   0  0  0  0  0  0  0  0  0  0  0  0
    6.5380   -3.0350    0.0000 H   0  0  0  0  0  0  0  0  0  0  0  0
    2.5369   -3.9650    0.0000 H   0  0  0  0  0  0  0  0  0  0  0  0
    2.0000   -3.0350    0.0000 H   0  0  0  0  0  0  0  0  0  0  0  0
  1  8  1  0  0  0  0
  1 34  1  0  0  0  0
  2 10  1  0  0  0  0
  2 21  1  0  0  0  0
  3 11  1  0  0  0  0
  3 22  1  0  0  0  0
  4 19  2  0  0  0  0
  4 23  1  0  0  0  0
  5 20  1  0  0  0  0
  5 23  2  0  0  0  0
  6 19  1  0  0  0  0
  6 42  1  0  0  0  0
  6 43  1  0  0  0  0
  7 23  1  0  0  0  0
  7 44  1  0  0  0  0
  7 45  1  0  0  0  0
  8  9  1  0  0  0  0
  8 13  1  0  0  0  0
  8 14  1  0  0  0  0
  9 10  2  0  0  0  0
  9 11  1  0  0  0  0
 10 15  1  0  0  0  0
 11 16  2  0  0  0  0
 12 15  2  0  0  0  0
 12 16  1  0  0  0  0
 12 17  1  0  0  0  0
 13 24  1  0  0  0  0
 13 25  1  0  0  0  0
 13 26  1  0  0  0  0
 14 27  1  0  0  0  0
 14 28  1  0  0  0  0
 14 29  1  0  0  0  0
 15 30  1  0  0  0  0
 16 31  1  0  0  0  0
 17 18  1  0  0  0  0
 17 32  1  0  0  0  0
 17 33  1  0  0  0  0
 18 19  1  0  0  0  0
 18 20  2  0  0  0  0
 20 35  1  0  0  0  0
 21 36  1  0  0  0  0
 21 37  1  0  0  0  0
 21 38  1  0  0  0  0
 22 39  1  0  0  0  0
 22 40  1  0  0  0  0
 22 41  1  0  0  0  0
M  END
> <PUBCHEM_COMPOUND_CID>
41526

> <PUBCHEM_COMPOUND_CANONICALIZED>
1

> <PUBCHEM_CACTVS_COMPLEXITY>
368

> <PUBCHEM_CACTVS_HBOND_ACCEPTOR>
7

> <PUBCHEM_CACTVS_HBOND_DONOR>
3

> <PUBCHEM_CACTVS_ROTATABLE_BOND>
5

> <PUBCHEM_CACTVS_SUBSKEYS>
AAADceB7sAAAAAAAAAAAAAAAAAAAAAAAAAA8QAAAAAAAAAABwAAAHgAQCAAADETBmgY/tpZIFgCgAjJnZACCiCkxIKAB2CAuTJiML6LE+VqEdCgtwBdI+CeQ4PwOwAABCAAIAACAAAIQABAAAAAAAAAAAA==

> <PUBCHEM_IUPAC_OPENEYE_NAME>
2-[4-[(2,4-diaminopyrimidin-5-yl)methyl]-2,6-dimethoxy-phenyl]propan-2-ol

> <PUBCHEM_IUPAC_CAS_NAME>
2-[4-[(2,4-diamino-5-pyrimidinyl)methyl]-2,6-dimethoxyphenyl]-2-propanol

> <PUBCHEM_IUPAC_NAME_MARKUP>
2-[4-[(2,4-diaminopyrimidin-5-yl)methyl]-2,6-dimethoxyphenyl]propan-2-ol

> <PUBCHEM_IUPAC_NAME>
2-[4-[(2,4-diaminopyrimidin-5-yl)methyl]-2,6-dimethoxyphenyl]propan-2-ol

> <PUBCHEM_IUPAC_SYSTEMATIC_NAME>
2-[4-[[2,4-bis(azanyl)pyrimidin-5-yl]methyl]-2,6-dimethoxy-phenyl]propan-2-ol

> <PUBCHEM_IUPAC_TRADITIONAL_NAME>
2-[4-[(2,4-diaminopyrimidin-5-yl)methyl]-2,6-dimethoxy-phenyl]propan-2-ol

> <PUBCHEM_IUPAC_INCHI>
InChI=1S/C16H22N4O3/c1-16(2,21)13-11(22-3)6-9(7-12(13)23-4)5-10-8-19-15(18)20-14(10)17/h6-8,21H,5H2,1-4H3,(H4,17,18,19,20)

> <PUBCHEM_IUPAC_INCHIKEY>
ZEHBWBDRLQCJBQ-UHFFFAOYSA-N

> <PUBCHEM_XLOGP3>
1.5

> <PUBCHEM_EXACT_MASS>
318.16919058

> <PUBCHEM_MOLECULAR_FORMULA>
C16H22N4O3

> <PUBCHEM_MOLECULAR_WEIGHT>
318.37

> <PUBCHEM_CACTVS_TPSA>
117

> <PUBCHEM_MONOISOTOPIC_WEIGHT>
318.16919058

> <PUBCHEM_TOTAL_CHARGE>
0

> <PUBCHEM_HEAVY_ATOM_COUNT>
23

> <PUBCHEM_ATOM_DEF_STEREO_COUNT>
0

> <PUBCHEM_ATOM_UDEF_STEREO_COUNT>
0

> <PUBCHEM_BOND_DEF_STEREO_COUNT>
0

> <PUBCHEM_BOND_UDEF_STEREO_COUNT>
0

> <PUBCHEM_ISOTOPIC_ATOM_COUNT>
0

> <PUBCHEM_COMPONENT_COUNT>
1

> <PUBCHEM_CACTVS_TAUTO_COUNT>
-1

> <PUBCHEM_COORDINATE_TYPE>
1
5
255

> <PUBCHEM_BONDANNOTATIONS>
10  15  8
11  16  8
12  15  8
12  16  8
18  19  8
18  20  8
4  19  8
4  23  8
5  20  8
5  23  8
9  10  8
9  11  8

$$$$
124081250
  -OEChem-07082511212D

 55 57  0     1  0  0  0  0  0999 V2000
    8.9282    1.9050    0.0000 O   0  0  0  0  0  0  0  0  0  0  0  0
    2.8660    4.4050    0.0000 O   0  0  0  0  0  0  0  0  0  0  0  0
    2.0000    2.9050    0.0000 O   0  0  0  0  0  0  0  0  0  0  0  0
   11.5263   -2.5950    0.0000 N   0  0  0  0  0  0  0  0  0  0  0  0
   10.6603   -4.0950    0.0000 N   0  0  0  0  0  0  0  0  0  0  0  0
    8.9282   -4.0950    0.0000 N   0  0  0  0  0  0  0  0  0  0  0  0
   12.3923   -4.0950    0.0000 N   0  0  0  0  0  0  0  0  0  0  0  0
    7.1962   -0.0950    0.0000 C   0  0  0  0  0  0  0  0  0  0  0  0
    7.1962   -1.0950    0.0000 C   0  0  2  0  0  0  0  0  0  0  0  0
    6.3301    1.4050    0.0000 C   0  0  0  0  0  0  0  0  0  0  0  0
    6.3301    0.4050    0.0000 C   0  0  0  0  0  0  0  0  0  0  0  0
    8.0622    0.4050    0.0000 C   0  0  0  0  0  0  0  0  0  0  0  0
    5.4641    1.9050    0.0000 C   0  0  0  0  0  0  0  0  0  0  0  0
    7.1962    1.9050    0.0000 C   0  0  0  0  0  0  0  0  0  0  0  0
    8.0622    1.4050    0.0000 C   0  0  0  0  0  0  0  0  0  0  0  0
    6.3301   -1.5950    0.0000 C   0  0  0  0  0  0  0  0  0  0  0  0
    8.0622   -1.5950    0.0000 C   0  0  0  0  0  0  0  0  0  0  0  0
    4.5981    1.4050    0.0000 C   0  0  0  0  0  0  0  0  0  0  0  0
    5.4641    2.9050    0.0000 C   0  0  0  0  0  0  0  0  0  0  0  0
    9.7942   -2.5950    0.0000 C   0  0  0  0  0  0  0  0  0  0  0  0
   10.6603   -2.0950    0.0000 C   0  0  0  0  0  0  0  0  0  0  0  0
    3.7320    1.9050    0.0000 C   0  0  0  0  0  0  0  0  0  0  0  0
    4.5981    3.4050    0.0000 C   0  0  0  0  0  0  0  0  0  0  0  0
    3.7320    2.9050    0.0000 C   0  0  0  0  0  0  0  0  0  0  0  0
   10.6603   -1.0950    0.0000 C   0  0  0  0  0  0  0  0  0  0  0  0
    8.9282   -2.0950    0.0000 C   0  0  0  0  0  0  0  0  0  0  0  0
    9.7942   -3.5950    0.0000 C   0  0  0  0  0  0  0  0  0  0  0  0
   11.5263   -0.5950    0.0000 C   0  0  0  0  0  0  0  0  0  0  0  0
    8.9282    2.9050    0.0000 C   0  0  0  0  0  0  0  0  0  0  0  0
   11.5263   -3.5950    0.0000 C   0  0  0  0  0  0  0  0  0  0  0  0
    2.8660    3.4050    0.0000 C   0  0  0  0  0  0  0  0  0  0  0  0
    6.6592   -0.7850    0.0000 H   0  0  0  0  0  0  0  0  0  0  0  0
    5.7932    0.0950    0.0000 H   0  0  0  0  0  0  0  0  0  0  0  0
    8.5991    0.0950    0.0000 H   0  0  0  0  0  0  0  0  0  0  0  0
    7.1962    2.5250    0.0000 H   0  0  0  0  0  0  0  0  0  0  0  0
    6.0201   -1.0581    0.0000 H   0  0  0  0  0  0  0  0  0  0  0  0
    5.7932   -1.9050    0.0000 H   0  0  0  0  0  0  0  0  0  0  0  0
    6.6401   -2.1319    0.0000 H   0  0  0  0  0  0  0  0  0  0  0  0
    4.5981    0.7850    0.0000 H   0  0  0  0  0  0  0  0  0  0  0  0
    6.0010    3.2150    0.0000 H   0  0  0  0  0  0  0  0  0  0  0  0
    3.1951    1.5950    0.0000 H   0  0  0  0  0  0  0  0  0  0  0  0
    4.5981    4.0250    0.0000 H   0  0  0  0  0  0  0  0  0  0  0  0
   10.4482   -0.5124    0.0000 H   0  0  0  0  0  0  0  0  0  0  0  0
   10.0497   -1.2027    0.0000 H   0  0  0  0  0  0  0  0  0  0  0  0
   11.8363   -1.1319    0.0000 H   0  0  0  0  0  0  0  0  0  0  0  0
   12.0632   -0.2850    0.0000 H   0  0  0  0  0  0  0  0  0  0  0  0
   11.2163   -0.0581    0.0000 H   0  0  0  0  0  0  0  0  0  0  0  0
    9.5482    2.9050    0.0000 H   0  0  0  0  0  0  0  0  0  0  0  0
    8.9282    3.5250    0.0000 H   0  0  0  0  0  0  0  0  0  0  0  0
    8.3082    2.9050    0.0000 H   0  0  0  0  0  0  0  0  0  0  0  0
    8.9282   -4.7150    0.0000 H   0  0  0  0  0  0  0  0  0  0  0  0
    8.3913   -3.7850    0.0000 H   0  0  0  0  0  0  0  0  0  0  0  0
   12.9292   -3.7850    0.0000 H   0  0  0  0  0  0  0  0  0  0  0  0
   12.3923   -4.7150    0.0000 H   0  0  0  0  0  0  0  0  0  0  0  0
    2.3291    4.7150    0.0000 H   0  0  0  0  0  0  0  0  0  0  0  0
  1 15  1  0  0  0  0
  1 29  1  0  0  0  0
  2 31  1  0  0  0  0
  2 55  1  0  0  0  0
  3 31  2  0  0  0  0
  4 21  1  0  0  0  0
  4 30  2  0  0  0  0
  5 27  2  0  0  0  0
  5 30  1  0  0  0  0
  6 27  1  0  0  0  0
  6 51  1  0  0  0  0
  6 52  1  0  0  0  0
  7 30  1  0  0  0  0
  7 53  1  0  0  0  0
  7 54  1  0  0  0  0
  8  9  1  0  0  0  0
  8 11  1  0  0  0  0
  8 12  2  0  0  0  0
  9 16  1  1  0  0  0
  9 17  1  0  0  0  0
  9 32  1  0  0  0  0
 10 11  2  0  0  0  0
 10 13  1  0  0  0  0
 10 14  1  0  0  0  0
 11 33  1  0  0  0  0
 12 15  1  0  0  0  0
 12 34  1  0  0  0  0
 13 18  2  0  0  0  0
 13 19  1  0  0  0  0
 14 15  2  0  0  0  0
 14 35  1  0  0  0  0
 16 36  1  0  0  0  0
 16 37  1  0  0  0  0
 16 38  1  0  0  0  0
 17 26  3  0  0  0  0
 18 22  1  0  0  0  0
 18 39  1  0  0  0  0
 19 23  2  0  0  0  0
 19 40  1  0  0  0  0
 20 21  2  0  0  0  0
 20 26  1  0  0  0  0
 20 27  1  0  0  0  0
 21 25  1  0  0  0  0
 22 24  2  0  0  0  0
 22 41  1  0  0  0  0
 23 24  1  0  0  0  0
 23 42  1  0  0  0  0
 24 31  1  0  0  0  0
 25 28  1  0  0  0  0
 25 43  1  0  0  0  0
 25 44  1  0  0  0  0
 28 45  1  0  0  0  0
 28 46  1  0  0  0  0
 28 47  1  0  0  0  0
 29 48  1  0  0  0  0
 29 49  1  0  0  0  0
 29 50  1  0  0  0  0
M  END
> <PUBCHEM_COMPOUND_CID>
124081250

> <PUBCHEM_COMPOUND_CANONICALIZED>
1

> <PUBCHEM_CACTVS_COMPLEXITY>
666

> <PUBCHEM_CACTVS_HBOND_ACCEPTOR>
7

> <PUBCHEM_CACTVS_HBOND_DONOR>
3

> <PUBCHEM_CACTVS_ROTATABLE_BOND>
6

> <PUBCHEM_CACTVS_SUBSKEYS>
AAADceB7sAAAAAAAAAAAAAAAAAAAAAAAAAA8YIAAAAAAAAAB0AAAHgAQCAAADQyBngIzvpZIFgDoEybybAiCiCklIKAJmCE2TNiMLjLE/dqEdShswBNI+aeYyPCOwAADAAAAAACAAAYAAAAAAAAAAAAAAA==

> <PUBCHEM_IUPAC_OPENEYE_NAME>
4-[3-[(1S)-3-(2,4-diamino-6-ethyl-pyrimidin-5-yl)-1-methyl-prop-2-ynyl]-5-methoxy-phenyl]benzoic acid

> <PUBCHEM_IUPAC_CAS_NAME>
4-[3-[(2S)-4-(2,4-diamino-6-ethyl-5-pyrimidinyl)but-3-yn-2-yl]-5-methoxyphenyl]benzoic acid

> <PUBCHEM_IUPAC_NAME_MARKUP>
4-[3-[(2<I>S</I>)-4-(2,4-diamino-6-ethylpyrimidin-5-yl)but-3-yn-2-yl]-5-methoxyphenyl]benzoic acid

> <PUBCHEM_IUPAC_NAME>
4-[3-[(2S)-4-(2,4-diamino-6-ethylpyrimidin-5-yl)but-3-yn-2-yl]-5-methoxyphenyl]benzoic acid

> <PUBCHEM_IUPAC_SYSTEMATIC_NAME>
4-[3-[(2S)-4-[2,4-bis(azanyl)-6-ethyl-pyrimidin-5-yl]but-3-yn-2-yl]-5-methoxy-phenyl]benzoic acid

> <PUBCHEM_IUPAC_TRADITIONAL_NAME>
4-[3-[(1S)-3-(2,4-diamino-6-ethyl-pyrimidin-5-yl)-1-methyl-prop-2-ynyl]-5-methoxy-phenyl]benzoic acid

> <PUBCHEM_IUPAC_INCHI>
InChI=1S/C24H24N4O3/c1-4-21-20(22(25)28-24(26)27-21)10-5-14(2)17-11-18(13-19(12-17)31-3)15-6-8-16(9-7-15)23(29)30/h6-9,11-14H,4H2,1-3H3,(H,29,30)(H4,25,26,27,28)/t14-/m1/s1

> <PUBCHEM_IUPAC_INCHIKEY>
OKJCHFXBCVXSIZ-CQSZACIVSA-N

> <PUBCHEM_XLOGP3_AA>
4.1

> <PUBCHEM_EXACT_MASS>
416.18484064

> <PUBCHEM_MOLECULAR_FORMULA>
C24H24N4O3

> <PUBCHEM_MOLECULAR_WEIGHT>
416.5

> <PUBCHEM_CACTVS_TPSA>
124

> <PUBCHEM_MONOISOTOPIC_WEIGHT>
416.18484064

> <PUBCHEM_TOTAL_CHARGE>
0

> <PUBCHEM_HEAVY_ATOM_COUNT>
31

> <PUBCHEM_ATOM_DEF_STEREO_COUNT>
1

> <PUBCHEM_ATOM_UDEF_STEREO_COUNT>
0

> <PUBCHEM_BOND_DEF_STEREO_COUNT>
0

> <PUBCHEM_BOND_UDEF_STEREO_COUNT>
0

> <PUBCHEM_ISOTOPIC_ATOM_COUNT>
0

> <PUBCHEM_COMPONENT_COUNT>
1

> <PUBCHEM_CACTVS_TAUTO_COUNT>
-1

> <PUBCHEM_COORDINATE_TYPE>
1
5
255

> <PUBCHEM_BONDANNOTATIONS>
10  11  8
10  14  8
12  15  8
13  18  8
13  19  8
14  15  8
18  22  8
19  23  8
20  21  8
20  27  8
22  24  8
23  24  8
4  21  8
4  30  8
5  27  8
5  30  8
8  11  8
8  12  8
9  16  5

$$$$
66563688
  -OEChem-07082511212D

 50 51  0     0  0  0  0  0  0999 V2000
    6.8671    1.3100    0.0000 O   0  0  0  0  0  0  0  0  0  0  0  0
    8.5991   -1.6900    0.0000 O   0  0  0  0  0  0  0  0  0  0  0  0
    2.5369    2.8100    0.0000 O   0  0  0  0  0  0  0  0  0  0  0  0
    3.4030    1.3100    0.0000 O   0  0  0  0  0  0  0  0  0  0  0  0
   11.1972   -2.1900    0.0000 N   0  0  0  0  0  0  0  0  0  0  0  0
   10.3312   -3.6900    0.0000 N   0  0  0  0  0  0  0  0  0  0  0  0
    8.5991   -3.6900    0.0000 N   0  0  0  0  0  0  0  0  0  0  0  0
   12.0632   -3.6900    0.0000 N   0  0  0  0  0  0  0  0  0  0  0  0
    7.7331   -0.1900    0.0000 C   0  0  0  0  0  0  0  0  0  0  0  0
    6.0010    2.8100    0.0000 C   0  0  0  0  0  0  0  0  0  0  0  0
    7.7331    0.8100    0.0000 C   0  0  0  0  0  0  0  0  0  0  0  0
    5.1350    2.3100    0.0000 C   0  0  0  0  0  0  0  0  0  0  0  0
    6.8671    2.3100    0.0000 C   0  0  0  0  0  0  0  0  0  0  0  0
    8.5991   -0.6900    0.0000 C   0  0  0  0  0  0  0  0  0  0  0  0
    4.2690    2.8100    0.0000 C   0  0  0  0  0  0  0  0  0  0  0  0
    9.4651   -2.1900    0.0000 C   0  0  0  0  0  0  0  0  0  0  0  0
    6.0010    3.8100    0.0000 C   0  0  0  0  0  0  0  0  0  0  0  0
   10.3312   -1.6900    0.0000 C   0  0  0  0  0  0  0  0  0  0  0  0
    7.7331    2.8100    0.0000 C   0  0  0  0  0  0  0  0  0  0  0  0
   10.3312   -0.6900    0.0000 C   0  0  0  0  0  0  0  0  0  0  0  0
    6.8671    4.3100    0.0000 C   0  0  0  0  0  0  0  0  0  0  0  0
    7.7331    3.8100    0.0000 C   0  0  0  0  0  0  0  0  0  0  0  0
    9.4651   -3.1900    0.0000 C   0  0  0  0  0  0  0  0  0  0  0  0
   11.1972   -0.1900    0.0000 C   0  0  0  0  0  0  0  0  0  0  0  0
    3.4030    2.3100    0.0000 C   0  0  0  0  0  0  0  0  0  0  0  0
   11.1972   -3.1900    0.0000 C   0  0  0  0  0  0  0  0  0  0  0  0
    7.1225   -0.0823    0.0000 H   0  0  0  0  0  0  0  0  0  0  0  0
    7.5210   -0.7726    0.0000 H   0  0  0  0  0  0  0  0  0  0  0  0
    8.3437    0.7023    0.0000 H   0  0  0  0  0  0  0  0  0  0  0  0
    7.9451    1.3926    0.0000 H   0  0  0  0  0  0  0  0  0  0  0  0
    4.7365    1.8350    0.0000 H   0  0  0  0  0  0  0  0  0  0  0  0
    5.5335    1.8350    0.0000 H   0  0  0  0  0  0  0  0  0  0  0  0
    9.2097   -0.7977    0.0000 H   0  0  0  0  0  0  0  0  0  0  0  0
    8.8112   -0.1074    0.0000 H   0  0  0  0  0  0  0  0  0  0  0  0
    4.6675    3.2850    0.0000 H   0  0  0  0  0  0  0  0  0  0  0  0
    3.8705    3.2850    0.0000 H   0  0  0  0  0  0  0  0  0  0  0  0
    5.4641    4.1200    0.0000 H   0  0  0  0  0  0  0  0  0  0  0  0
    8.2700    2.5000    0.0000 H   0  0  0  0  0  0  0  0  0  0  0  0
   10.1191   -0.1074    0.0000 H   0  0  0  0  0  0  0  0  0  0  0  0
    9.7206   -0.7977    0.0000 H   0  0  0  0  0  0  0  0  0  0  0  0
    6.8671    4.9300    0.0000 H   0  0  0  0  0  0  0  0  0  0  0  0
    8.2700    4.1200    0.0000 H   0  0  0  0  0  0  0  0  0  0  0  0
   11.5072   -0.7269    0.0000 H   0  0  0  0  0  0  0  0  0  0  0  0
   11.7341    0.1200    0.0000 H   0  0  0  0  0  0  0  0  0  0  0  0
   10.8872    0.3469    0.0000 H   0  0  0  0  0  0  0  0  0  0  0  0
    8.5991   -4.3100    0.0000 H   0  0  0  0  0  0  0  0  0  0  0  0
    8.0622   -3.3800    0.0000 H   0  0  0  0  0  0  0  0  0  0  0  0
   12.6002   -3.3800    0.0000 H   0  0  0  0  0  0  0  0  0  0  0  0
   12.0632   -4.3100    0.0000 H   0  0  0  0  0  0  0  0  0  0  0  0
    2.0000    2.5000    0.0000 H   0  0  0  0  0  0  0  0  0  0  0  0
  1 11  1  0  0  0  0
  1 13  1  0  0  0  0
  2 14  1  0  0  0  0
  2 16  1  0  0  0  0
  3 25  1  0  0  0  0
  3 50  1  0  0  0  0
  4 25  2  0  0  0  0
  5 18  1  0  0  0  0
  5 26  2  0  0  0  0
  6 23  2  0  0  0  0
  6 26  1  0  0  0  0
  7 23  1  0  0  0  0
  7 46  1  0  0  0  0
  7 47  1  0  0  0  0
  8 26  1  0  0  0  0
  8 48  1  0  0  0  0
  8 49  1  0  0  0  0
  9 11  1  0  0  0  0
  9 14  1  0  0  0  0
  9 27  1  0  0  0  0
  9 28  1  0  0  0  0
 10 12  1  0  0  0  0
 10 13  1  0  0  0  0
 10 17  2  0  0  0  0
 11 29  1  0  0  0  0
 11 30  1  0  0  0  0
 12 15  1  0  0  0  0
 12 31  1  0  0  0  0
 12 32  1  0  0  0  0
 13 19  2  0  0  0  0
 14 33  1  0  0  0  0
 14 34  1  0  0  0  0
 15 25  1  0  0  0  0
 15 35  1  0  0  0  0
 15 36  1  0  0  0  0
 16 18  2  0  0  0  0
 16 23  1  0  0  0  0
 17 21  1  0  0  0  0
 17 37  1  0  0  0  0
 18 20  1  0  0  0  0
 19 22  1  0  0  0  0
 19 38  1  0  0  0  0
 20 24  1  0  0  0  0
 20 39  1  0  0  0  0
 20 40  1  0  0  0  0
 21 22  2  0  0  0  0
 21 41  1  0  0  0  0
 22 42  1  0  0  0  0
 24 43  1  0  0  0  0
 24 44  1  0  0  0  0
 24 45  1  0  0  0  0
M  END
> <PUBCHEM_COMPOUND_CID>
66563688

> <PUBCHEM_COMPOUND_CANONICALIZED>
1

> <PUBCHEM_CACTVS_COMPLEXITY>
426

> <PUBCHEM_CACTVS_HBOND_ACCEPTOR>
8

> <PUBCHEM_CACTVS_HBOND_DONOR>
3

> <PUBCHEM_CACTVS_ROTATABLE_BOND>
10

> <PUBCHEM_CACTVS_SUBSKEYS>
AAADceB7uAAAAAAAAAAAAAAAAAAAAAAAAAA8QAAAAAAAAAABwAAAHgAQCAAADAyhngIzvpZIFgCoAybybASCiCkhYKAJmCE3TJiOLjLE+dqHfCjtwBNY6CeY7KzOAAAAAAAIAAAAAAAAABAAAAAAAAAAAA==

> <PUBCHEM_IUPAC_OPENEYE_NAME>
3-[2-[3-(2,4-diamino-6-ethyl-pyrimidin-5-yl)oxypropoxy]phenyl]propanoic acid

> <PUBCHEM_IUPAC_CAS_NAME>
3-[2-[3-[(2,4-diamino-6-ethyl-5-pyrimidinyl)oxy]propoxy]phenyl]propanoic acid

> <PUBCHEM_IUPAC_NAME_MARKUP>
3-[2-[3-(2,4-diamino-6-ethylpyrimidin-5-yl)oxypropoxy]phenyl]propanoic acid

> <PUBCHEM_IUPAC_NAME>
3-[2-[3-(2,4-diamino-6-ethylpyrimidin-5-yl)oxypropoxy]phenyl]propanoic acid

> <PUBCHEM_IUPAC_SYSTEMATIC_NAME>
3-[2-[3-[2,4-bis(azanyl)-6-ethyl-pyrimidin-5-yl]oxypropoxy]phenyl]propanoic acid

> <PUBCHEM_IUPAC_TRADITIONAL_NAME>
3-[2-[3-(2,4-diamino-6-ethyl-pyrimidin-5-yl)oxypropoxy]phenyl]propionic acid

> <PUBCHEM_IUPAC_INCHI>
InChI=1S/C18H24N4O4/c1-2-13-16(17(19)22-18(20)21-13)26-11-5-10-25-14-7-4-3-6-12(14)8-9-15(23)24/h3-4,6-7H,2,5,8-11H2,1H3,(H,23,24)(H4,19,20,21,22)

> <PUBCHEM_IUPAC_INCHIKEY>
VDGXZSSDCDPCRF-UHFFFAOYSA-N

> <PUBCHEM_XLOGP3_AA>
2.1

> <PUBCHEM_EXACT_MASS>
360.17975526

> <PUBCHEM_MOLECULAR_FORMULA>
C18H24N4O4

> <PUBCHEM_MOLECULAR_WEIGHT>
360.4

> <PUBCHEM_CACTVS_TPSA>
134

> <PUBCHEM_MONOISOTOPIC_WEIGHT>
360.17975526

> <PUBCHEM_TOTAL_CHARGE>
0

> <PUBCHEM_HEAVY_ATOM_COUNT>
26

> <PUBCHEM_ATOM_DEF_STEREO_COUNT>
0

> <PUBCHEM_ATOM_UDEF_STEREO_COUNT>
0

> <PUBCHEM_BOND_DEF_STEREO_COUNT>
0

> <PUBCHEM_BOND_UDEF_STEREO_COUNT>
0

> <PUBCHEM_ISOTOPIC_ATOM_COUNT>
0

> <PUBCHEM_COMPONENT_COUNT>
1

> <PUBCHEM_CACTVS_TAUTO_COUNT>
-1

> <PUBCHEM_COORDINATE_TYPE>
1
5
255

> <PUBCHEM_BONDANNOTATIONS>
10  13  8
10  17  8
13  19  8
16  18  8
16  23  8
17  21  8
19  22  8
21  22  8
5  18  8
5  26  8
6  23  8
6  26  8

$$$$
461563
  -OEChem-07082511212D

 73 75  0     0  0  0  0  0  0999 V2000
   10.5390    4.3100    0.0000 S   0  0  0  0  0  0  0  0  0  0  0  0
    4.0010    7.9012    0.0000 O   0  0  0  0  0  0  0  0  0  0  0  0
    5.7331    5.9012    0.0000 O   0  0  0  0  0  0  0  0  0  0  0  0
    2.2690    5.9012    0.0000 O   0  0  0  0  0  0  0  0  0  0  0  0
   11.5390    4.3100    0.0000 O   0  0  0  0  0  0  0  0  0  0  0  0
    9.5390    4.3100    0.0000 O   0  0  0  0  0  0  0  0  0  0  0  0
   12.9877    6.1464    0.0000 O   0  0  0  0  0  0  0  0  0  0  0  0
    2.2690    0.9012    0.0000 N   0  0  0  0  0  0  0  0  0  0  0  0
    1.4030    2.4012    0.0000 N   0  0  0  0  0  0  0  0  0  0  0  0
    4.0010    0.9012    0.0000 N   0  0  0  0  0  0  0  0  0  0  0  0
   10.5390    5.3100    0.0000 N   0  0  0  0  0  0  0  0  0  0  0  0
    0.5369    0.9012    0.0000 N   0  0  0  0  0  0  0  0  0  0  0  0
   12.3186    5.4033    0.0000 N   0  0  0  0  0  0  0  0  0  0  0  0
   10.5390    0.3100    0.0000 N   0  0  0  0  0  0  0  0  0  0  0  0
    4.0010    6.9012    0.0000 C   0  0  0  0  0  0  0  0  0  0  0  0
    4.0010    5.9012    0.0000 C   0  0  0  0  0  0  0  0  0  0  0  0
    4.8671    5.4012    0.0000 C   0  0  0  0  0  0  0  0  0  0  0  0
    3.1350    5.4012    0.0000 C   0  0  0  0  0  0  0  0  0  0  0  0
    4.0010    3.9012    0.0000 C   0  0  0  0  0  0  0  0  0  0  0  0
    5.0010    6.9012    0.0000 C   0  0  0  0  0  0  0  0  0  0  0  0
    3.0010    6.9012    0.0000 C   0  0  0  0  0  0  0  0  0  0  0  0
    4.8671    4.4012    0.0000 C   0  0  0  0  0  0  0  0  0  0  0  0
    3.1350    4.4012    0.0000 C   0  0  0  0  0  0  0  0  0  0  0  0
    4.0010    2.9012    0.0000 C   0  0  0  0  0  0  0  0  0  0  0  0
    3.1350    2.4012    0.0000 C   0  0  0  0  0  0  0  0  0  0  0  0
    3.1350    1.4012    0.0000 C   0  0  0  0  0  0  0  0  0  0  0  0
    2.2690    2.9012    0.0000 C   0  0  0  0  0  0  0  0  0  0  0  0
    6.5991    5.4012    0.0000 C   0  0  0  0  0  0  0  0  0  0  0  0
    1.4030    5.4012    0.0000 C   0  0  0  0  0  0  0  0  0  0  0  0
    1.4030    1.4012    0.0000 C   0  0  0  0  0  0  0  0  0  0  0  0
   10.5390    3.3100    0.0000 C   0  0  0  0  0  0  0  0  0  0  0  0
    9.6730    2.8100    0.0000 C   0  0  0  0  0  0  0  0  0  0  0  0
   11.4050    2.8100    0.0000 C   0  0  0  0  0  0  0  0  0  0  0  0
   11.4050    5.8100    0.0000 C   0  0  0  0  0  0  0  0  0  0  0  0
   10.5390    1.3100    0.0000 C   0  0  0  0  0  0  0  0  0  0  0  0
    9.6730    1.8100    0.0000 C   0  0  0  0  0  0  0  0  0  0  0  0
   11.4050    1.8100    0.0000 C   0  0  0  0  0  0  0  0  0  0  0  0
   11.5096    6.8045    0.0000 C   0  0  0  0  0  0  0  0  0  0  0  0
   12.4877    7.0124    0.0000 C   0  0  0  0  0  0  0  0  0  0  0  0
   12.8944    7.9260    0.0000 C   0  0  0  0  0  0  0  0  0  0  0  0
    5.0010    6.2812    0.0000 H   0  0  0  0  0  0  0  0  0  0  0  0
    5.6210    6.9012    0.0000 H   0  0  0  0  0  0  0  0  0  0  0  0
    5.0010    7.5212    0.0000 H   0  0  0  0  0  0  0  0  0  0  0  0
    3.0010    7.5212    0.0000 H   0  0  0  0  0  0  0  0  0  0  0  0
    2.3810    6.9012    0.0000 H   0  0  0  0  0  0  0  0  0  0  0  0
    3.0010    6.2812    0.0000 H   0  0  0  0  0  0  0  0  0  0  0  0
    5.4040    4.0912    0.0000 H   0  0  0  0  0  0  0  0  0  0  0  0
    2.5981    4.0912    0.0000 H   0  0  0  0  0  0  0  0  0  0  0  0
    4.2131    2.3186    0.0000 H   0  0  0  0  0  0  0  0  0  0  0  0
    4.6116    3.0089    0.0000 H   0  0  0  0  0  0  0  0  0  0  0  0
    4.5380    8.2112    0.0000 H   0  0  0  0  0  0  0  0  0  0  0  0
    2.2690    3.5212    0.0000 H   0  0  0  0  0  0  0  0  0  0  0  0
    6.2891    4.8643    0.0000 H   0  0  0  0  0  0  0  0  0  0  0  0
    7.1361    5.0912    0.0000 H   0  0  0  0  0  0  0  0  0  0  0  0
    6.9091    5.9381    0.0000 H   0  0  0  0  0  0  0  0  0  0  0  0
    1.0930    5.9381    0.0000 H   0  0  0  0  0  0  0  0  0  0  0  0
    0.8660    5.0912    0.0000 H   0  0  0  0  0  0  0  0  0  0  0  0
    1.7130    4.8643    0.0000 H   0  0  0  0  0  0  0  0  0  0  0  0
    4.0010    0.2812    0.0000 H   0  0  0  0  0  0  0  0  0  0  0  0
    4.5380    1.2112    0.0000 H   0  0  0  0  0  0  0  0  0  0  0  0
   10.0021    5.6200    0.0000 H   0  0  0  0  0  0  0  0  0  0  0  0
    9.1361    3.1200    0.0000 H   0  0  0  0  0  0  0  0  0  0  0  0
   11.9420    3.1200    0.0000 H   0  0  0  0  0  0  0  0  0  0  0  0
    9.1361    1.5000    0.0000 H   0  0  0  0  0  0  0  0  0  0  0  0
   11.9420    1.5000    0.0000 H   0  0  0  0  0  0  0  0  0  0  0  0
    0.5369    0.2812    0.0000 H   0  0  0  0  0  0  0  0  0  0  0  0
    0.0000    1.2112    0.0000 H   0  0  0  0  0  0  0  0  0  0  0  0
   11.0488    7.2194    0.0000 H   0  0  0  0  0  0  0  0  0  0  0  0
   10.0021    0.0000    0.0000 H   0  0  0  0  0  0  0  0  0  0  0  0
   11.0759    0.0000    0.0000 H   0  0  0  0  0  0  0  0  0  0  0  0
   13.4608    7.6738    0.0000 H   0  0  0  0  0  0  0  0  0  0  0  0
   13.1466    8.4924    0.0000 H   0  0  0  0  0  0  0  0  0  0  0  0
   12.3281    8.1782    0.0000 H   0  0  0  0  0  0  0  0  0  0  0  0
  1  5  2  0  0  0  0
  1  6  2  0  0  0  0
  1 11  1  0  0  0  0
  1 31  1  0  0  0  0
  2 15  1  0  0  0  0
  2 51  1  0  0  0  0
  3 17  1  0  0  0  0
  3 28  1  0  0  0  0
  4 18  1  0  0  0  0
  4 29  1  0  0  0  0
  7 13  1  0  0  0  0
  7 39  1  0  0  0  0
  8 26  2  0  0  0  0
  8 30  1  0  0  0  0
  9 27  1  0  0  0  0
  9 30  2  0  0  0  0
 10 26  1  0  0  0  0
 10 59  1  0  0  0  0
 10 60  1  0  0  0  0
 11 34  1  0  0  0  0
 11 61  1  0  0  0  0
 12 30  1  0  0  0  0
 12 66  1  0  0  0  0
 12 67  1  0  0  0  0
 13 34  2  0  0  0  0
 14 35  1  0  0  0  0
 14 69  1  0  0  0  0
 14 70  1  0  0  0  0
 15 16  1  0  0  0  0
 15 20  1  0  0  0  0
 15 21  1  0  0  0  0
 16 17  2  0  0  0  0
 16 18  1  0  0  0  0
 17 22  1  0  0  0  0
 18 23  2  0  0  0  0
 19 22  2  0  0  0  0
 19 23  1  0  0  0  0
 19 24  1  0  0  0  0
 20 41  1  0  0  0  0
 20 42  1  0  0  0  0
 20 43  1  0  0  0  0
 21 44  1  0  0  0  0
 21 45  1  0  0  0  0
 21 46  1  0  0  0  0
 22 47  1  0  0  0  0
 23 48  1  0  0  0  0
 24 25  1  0  0  0  0
 24 49  1  0  0  0  0
 24 50  1  0  0  0  0
 25 26  1  0  0  0  0
 25 27  2  0  0  0  0
 27 52  1  0  0  0  0
 28 53  1  0  0  0  0
 28 54  1  0  0  0  0
 28 55  1  0  0  0  0
 29 56  1  0  0  0  0
 29 57  1  0  0  0  0
 29 58  1  0  0  0  0
 31 32  2  0  0  0  0
 31 33  1  0  0  0  0
 32 36  1  0  0  0  0
 32 62  1  0  0  0  0
 33 37  2  0  0  0  0
 33 63  1  0  0  0  0
 34 38  1  0  0  0  0
 35 36  2  0  0  0  0
 35 37  1  0  0  0  0
 36 64  1  0  0  0  0
 37 65  1  0  0  0  0
 38 39  2  0  0  0  0
 38 68  1  0  0  0  0
 39 40  1  0  0  0  0
 40 71  1  0  0  0  0
 40 72  1  0  0  0  0
 40 73  1  0  0  0  0
M  END
> <PUBCHEM_COMPOUND_CID>
461563

> <PUBCHEM_COMPOUND_CANONICALIZED>
1

> <PUBCHEM_CACTVS_COMPLEXITY>
715

> <PUBCHEM_CACTVS_HBOND_ACCEPTOR>
13

> <PUBCHEM_CACTVS_HBOND_DONOR>
5

> <PUBCHEM_CACTVS_ROTATABLE_BOND>
8

> <PUBCHEM_CACTVS_SUBSKEYS>
AAADcfB7uABAAAAAAAAAAAAAAAAAAWAAAAA8YIAAAAAAAAAB9AAAHgQUSAAADEzB2gY/95ZYFgKpArZ3ZnDCiDk1IqAp2Dk+bNqML6rE+duEdKhv0B9I+GeQ4PwOwAQBCAAIAACACAIQABAAAAAAAAAAAA==

> <PUBCHEM_IUPAC_OPENEYE_NAME>
4-amino-N-(5-methylisoxazol-3-yl)benzenesulfonamide;2-[4-[(2,4-diaminopyrimidin-5-yl)methyl]-2,6-dimethoxy-phenyl]propan-2-ol

> <PUBCHEM_IUPAC_CAS_NAME>
4-amino-N-(5-methyl-3-isoxazolyl)benzenesulfonamide;2-[4-[(2,4-diamino-5-pyrimidinyl)methyl]-2,6-dimethoxyphenyl]-2-propanol

> <PUBCHEM_IUPAC_NAME_MARKUP>
4-amino-<I>N</I>-(5-methyl-1,2-oxazol-3-yl)benzenesulfonamide;2-[4-[(2,4-diaminopyrimidin-5-yl)methyl]-2,6-dimethoxyphenyl]propan-2-ol

> <PUBCHEM_IUPAC_NAME>
4-amino-N-(5-methyl-1,2-oxazol-3-yl)benzenesulfonamide;2-[4-[(2,4-diaminopyrimidin-5-yl)methyl]-2,6-dimethoxyphenyl]propan-2-ol

> <PUBCHEM_IUPAC_SYSTEMATIC_NAME>
4-azanyl-N-(5-methyl-1,2-oxazol-3-yl)benzenesulfonamide;2-[4-[[2,4-bis(azanyl)pyrimidin-5-yl]methyl]-2,6-dimethoxy-phenyl]propan-2-ol

> <PUBCHEM_IUPAC_TRADITIONAL_NAME>
4-amino-N-(5-methylisoxazol-3-yl)benzenesulfonamide;2-[4-[(2,4-diaminopyrimidin-5-yl)methyl]-2,6-dimethoxy-phenyl]propan-2-ol

> <PUBCHEM_IUPAC_INCHI>
InChI=1S/C16H22N4O3.C10H11N3O3S/c1-16(2,21)13-11(22-3)6-9(7-12(13)23-4)5-10-8-19-15(18)20-14(10)17;1-7-6-10(12-16-7)13-17(14,15)9-4-2-8(11)3-5-9/h6-8,21H,5H2,1-4H3,(H4,17,18,19,20);2-6H,11H2,1H3,(H,12,13)

> <PUBCHEM_IUPAC_INCHIKEY>
KQYRKKHZNNVSQL-UHFFFAOYSA-N

> <PUBCHEM_EXACT_MASS>
571.22130297

> <PUBCHEM_MOLECULAR_FORMULA>
C26H33N7O6S

> <PUBCHEM_MOLECULAR_WEIGHT>
571.7

> <PUBCHEM_CACTVS_TPSA>
223

> <PUBCHEM_MONOISOTOPIC_WEIGHT>
571.22130297

> <PUBCHEM_TOTAL_CHARGE>
0

> <PUBCHEM_HEAVY_ATOM_COUNT>
40

> <PUBCHEM_ATOM_DEF_STEREO_COUNT>
0

> <PUBCHEM_ATOM_UDEF_STEREO_COUNT>
0

> <PUBCHEM_BOND_DEF_STEREO_COUNT>
0

> <PUBCHEM_BOND_UDEF_STEREO_COUNT>
0

> <PUBCHEM_ISOTOPIC_ATOM_COUNT>
0

> <PUBCHEM_COMPONENT_COUNT>
2

> <PUBCHEM_CACTVS_TAUTO_COUNT>
-1

> <PUBCHEM_COORDINATE_TYPE>
1
5
255

> <PUBCHEM_BONDANNOTATIONS>
13  34  8
16  17  8
16  18  8
17  22  8
18  23  8
19  22  8
19  23  8
25  26  8
25  27  8
31  32  8
31  33  8
32  36  8
33  37  8
34  38  8
35  36  8
35  37  8
38  39  8
7  13  8
7  39  8
8  26  8
8  30  8
9  27  8
9  30  8

$$$$
