decoy_1
     RDKit          3D

 36 40  0  0  0  0  0  0  0  0999 V2000
    6.3479    1.3458   -1.0550 O   0  0  0  0  0  0  0  0  0  0  0  0
    4.6262   -2.3950    1.5120 O   0  0  0  0  0  0  0  0  0  0  0  0
    6.8160   -0.7105    0.6253 O   0  0  0  0  0  0  0  0  0  0  0  0
   -3.5386    0.1555    1.6636 N   0  0  0  0  0  0  0  0  0  0  0  0
   -4.2734    0.0499    0.5660 N   0  0  0  0  0  0  0  0  0  0  0  0
   -1.0089    1.0270   -2.0874 N   0  0  0  0  0  0  0  0  0  0  0  0
    1.3246    0.9611   -2.3590 N   0  0  0  0  0  0  0  0  0  0  0  0
   -0.0417    1.8537   -4.1341 N   0  0  0  0  0  0  0  0  0  0  0  0
   -2.1370    0.2347   -0.0559 C   0  0  0  0  0  0  0  0  0  0  0  0
   -3.4480    0.0872   -0.4984 C   0  0  0  0  0  0  0  0  0  0  0  0
   -0.9132    0.4674   -0.8525 C   0  0  0  0  0  0  0  0  0  0  0  0
   -2.2368    0.2703    1.3225 C   0  0  0  0  0  0  0  0  0  0  0  0
   -3.9280   -0.0509   -1.8886 C   0  0  0  0  0  0  0  0  0  0  0  0
    1.4870    0.3992   -1.1299 C   0  0  0  0  0  0  0  0  0  0  0  0
    0.3523    0.1506   -0.3403 C   0  0  0  0  0  0  0  0  0  0  0  0
    2.8569    0.0815   -0.6504 C   0  0  0  0  0  0  0  0  0  0  0  0
   -4.0961    0.1729    2.9945 C   0  0  0  0  0  0  0  0  0  0  0  0
    3.0955   -1.0047    0.2055 C   0  0  0  0  0  0  0  0  0  0  0  0
    3.9410    0.8587   -1.0783 C   0  0  0  0  0  0  0  0  0  0  0  0
   -3.2304   -0.8404   -2.8197 C   0  0  0  0  0  0  0  0  0  0  0  0
   -5.1290    0.5657   -2.2766 C   0  0  0  0  0  0  0  0  0  0  0  0
    5.2472    0.5761   -0.6431 C   0  0  0  0  0  0  0  0  0  0  0  0
    4.3959   -1.3066    0.6553 C   0  0  0  0  0  0  0  0  0  0  0  0
    5.4813   -0.4998    0.2278 C   0  0  0  0  0  0  0  0  0  0  0  0
    0.0935    1.2725   -2.8399 C   0  0  0  0  0  0  0  0  0  0  0  0
   -5.4849    0.3235    3.1732 C   0  0  0  0  0  0  0  0  0  0  0  0
   -3.2782    0.0344    4.1342 C   0  0  0  0  0  0  0  0  0  0  0  0
   -3.7057   -0.9735   -4.1280 C   0  0  0  0  0  0  0  0  0  0  0  0
   -5.6018    0.4290   -3.5857 C   0  0  0  0  0  0  0  0  0  0  0  0
   -6.0388    0.3406    4.4569 C   0  0  0  0  0  0  0  0  0  0  0  0
   -3.8384    0.0538    5.4155 C   0  0  0  0  0  0  0  0  0  0  0  0
   -4.8879   -0.3357   -4.5122 C   0  0  0  0  0  0  0  0  0  0  0  0
   -5.2166    0.2083    5.5767 C   0  0  0  0  0  0  0  0  0  0  0  0
    6.2731    2.4590   -1.9404 C   0  0  0  0  0  0  0  0  0  0  0  0
    3.6210   -3.2721    2.0113 C   0  0  0  0  0  0  0  0  0  0  0  0
    7.2889   -1.7145    1.5162 C   0  0  0  0  0  0  0  0  0  0  0  0
  1 22  1  0
  1 34  1  0
  2 23  1  0
  2 35  1  0
  3 24  1  0
  3 36  1  0
  4  5  1  0
  4 12  1  0
  4 17  1  0
  5 10  2  0
  6 11  2  0
  6 25  1  0
  7 14  1  0
  7 25  2  0
  8 25  1  0
  9 10  1  0
  9 11  1  0
  9 12  2  0
 10 13  1  0
 11 15  1  0
 13 20  2  0
 13 21  1  0
 14 15  2  0
 14 16  1  0
 16 18  2  0
 16 19  1  0
 17 26  2  0
 17 27  1  0
 18 23  1  0
 19 22  2  0
 20 28  1  0
 21 29  2  0
 22 24  1  0
 23 24  2  0
 26 30  1  0
 27 31  2  0
 28 32  2  0
 29 32  1  0
 30 33  2  0
 31 33  1  0
M  END
>  <PUBCHEM_COMPOUND_CID>  (1) 
169450430

>  <PUBCHEM_COMPOUND_CANONICALIZED>  (1) 
1

>  <PUBCHEM_CACTVS_COMPLEXITY>  (1) 
660

>  <PUBCHEM_CACTVS_HBOND_ACCEPTOR>  (1) 
7

>  <PUBCHEM_CACTVS_HBOND_DONOR>  (1) 
1

>  <PUBCHEM_CACTVS_ROTATABLE_BOND>  (1) 
7

>  <PUBCHEM_CACTVS_SUBSKEYS>  (1) 
AAADceB7sAAAAAAAAAAAAAAAAAAAAWAAAAA8YMEAAAAAAAAB9AAAHgAYAAAADAzBngY/1pZIFACiAzRnZACSjCkxoqAZmCA+7JiNL+LE+duEtCptyBfK6Cew8P8OIAABCAAAQABAAAIQAACAAAAAAAAAAA==

>  <PUBCHEM_IUPAC_OPENEYE_NAME>  (1) 
4-(1,3-diphenylpyrazol-4-yl)-6-(3,4,5-trimethoxyphenyl)pyrimidin-2-amine

>  <PUBCHEM_IUPAC_CAS_NAME>  (1) 
4-(1,3-diphenyl-4-pyrazolyl)-6-(3,4,5-trimethoxyphenyl)-2-pyrimidinamine

>  <PUBCHEM_IUPAC_NAME_MARKUP>  (1) 
4-(1,3-diphenylpyrazol-4-yl)-6-(3,4,5-trimethoxyphenyl)pyrimidin-2-amine

>  <PUBCHEM_IUPAC_NAME>  (1) 
4-(1,3-diphenylpyrazol-4-yl)-6-(3,4,5-trimethoxyphenyl)pyrimidin-2-amine

>  <PUBCHEM_IUPAC_SYSTEMATIC_NAME>  (1) 
4-(1,3-diphenylpyrazol-4-yl)-6-(3,4,5-trimethoxyphenyl)pyrimidin-2-amine

>  <PUBCHEM_IUPAC_TRADITIONAL_NAME>  (1) 
[4-(1,3-diphenylpyrazol-4-yl)-6-(3,4,5-trimethoxyphenyl)pyrimidin-2-yl]amine

>  <PUBCHEM_IUPAC_INCHI>  (1) 
InChI=1S/C28H25N5O3/c1-34-24-14-19(15-25(35-2)27(24)36-3)22-16-23(31-28(29)30-22)21-17-33(20-12-8-5-9-13-20)32-26(21)18-10-6-4-7-11-18/h4-17H,1-3H3,(H2,29,30,31)

>  <PUBCHEM_IUPAC_INCHIKEY>  (1) 
MEMCKFAZJRMZAC-UHFFFAOYSA-N

>  <PUBCHEM_XLOGP3_AA>  (1) 
4.7

>  <PUBCHEM_EXACT_MASS>  (1) 
479.19573968

>  <PUBCHEM_MOLECULAR_FORMULA>  (1) 
C28H25N5O3

>  <PUBCHEM_MOLECULAR_WEIGHT>  (1) 
479.5

>  <PUBCHEM_CACTVS_TPSA>  (1) 
97.3

>  <PUBCHEM_MONOISOTOPIC_WEIGHT>  (1) 
479.19573968

>  <PUBCHEM_TOTAL_CHARGE>  (1) 
0

>  <PUBCHEM_HEAVY_ATOM_COUNT>  (1) 
36

>  <PUBCHEM_ATOM_DEF_STEREO_COUNT>  (1) 
0

>  <PUBCHEM_ATOM_UDEF_STEREO_COUNT>  (1) 
0

>  <PUBCHEM_BOND_DEF_STEREO_COUNT>  (1) 
0

>  <PUBCHEM_BOND_UDEF_STEREO_COUNT>  (1) 
0

>  <PUBCHEM_ISOTOPIC_ATOM_COUNT>  (1) 
0

>  <PUBCHEM_COMPONENT_COUNT>  (1) 
1

>  <PUBCHEM_CACTVS_TAUTO_COUNT>  (1) 
-1

>  <PUBCHEM_COORDINATE_TYPE>  (1) 
1
5
255

>  <PUBCHEM_BONDANNOTATIONS>  (1) 
11  15  8
13  20  8
13  21  8
14  15  8
16  18  8
16  19  8
17  26  8
17  27  8
18  23  8
19  22  8
20  28  8
21  29  8
22  24  8
23  24  8
26  30  8
27  31  8
28  32  8
29  32  8
30  33  8
31  33  8
4  12  8
4  5  8
5  10  8
6  11  8
6  25  8
7  14  8
7  25  8
9  10  8
9  12  8

$$$$
decoy_2
     RDKit          3D

 32 36  0  0  1  0  0  0  0  0999 V2000
    5.3560    0.0260    3.5197 Cl  0  0  0  0  0  0  0  0  0  0  0  0
    0.6418   -0.0981   -3.6094 S   0  0  0  0  0  0  0  0  0  0  0  0
    6.3088   -0.5147    0.7335 F   0  0  0  0  0  0  0  0  0  0  0  0
    1.8136   -2.3692   -1.6144 O   0  0  0  0  0  0  0  0  0  0  0  0
   -2.4347    3.3348   -0.3679 O   0  0  0  0  0  0  0  0  0  0  0  0
    3.6973    2.0985   -2.6580 O   0  0  0  0  0  0  0  0  0  0  0  0
    0.0290   -1.6656   -0.2187 N   0  0  0  0  0  0  0  0  0  0  0  0
    2.2019    0.6673   -1.5513 N   0  0  0  0  0  0  0  0  0  0  0  0
   -0.1783   -2.7828    0.7166 C   0  0  0  0  0  0  0  0  0  0  0  0
   -1.1366   -2.3418    1.8843 C   0  0  0  0  0  0  0  0  0  0  0  0
    0.9694   -0.0765   -1.8091 C   0  0  1  0  0  0  0  0  0  0  0  0
   -0.6884   -0.4535   -0.1839 C   0  0  0  0  0  0  0  0  0  0  0  0
   -2.2703   -1.3347    1.5195 C   0  0  1  0  0  0  0  0  0  0  0  0
   -0.1994    0.4874   -1.0556 C   0  0  0  0  0  0  0  0  0  0  0  0
   -1.7564   -0.2087    0.6585 C   0  0  0  0  0  0  0  0  0  0  0  0
    1.0118   -1.4732   -1.2391 C   0  0  0  0  0  0  0  0  0  0  0  0
    1.1745   -3.1960    1.3359 C   0  0  0  0  0  0  0  0  0  0  0  0
   -0.7589   -3.9851   -0.0499 C   0  0  0  0  0  0  0  0  0  0  0  0
   -3.4744   -2.0079    0.8492 C   0  0  0  0  0  0  0  0  0  0  0  0
   -0.7712    1.7591   -1.1204 C   0  0  0  0  0  0  0  0  0  0  0  0
   -2.3656    1.0599    0.6014 C   0  0  0  0  0  0  0  0  0  0  0  0
   -1.8683    2.0547   -0.2859 C   0  0  0  0  0  0  0  0  0  0  0  0
    1.8871    1.1929   -3.9401 C   0  0  0  0  0  0  0  0  0  0  0  0
    2.6777    1.3588   -2.6992 C   0  0  0  0  0  0  0  0  0  0  0  0
    2.9689    0.5551   -0.3354 C   0  0  0  0  0  0  0  0  0  0  0  0
    4.2959    0.0978   -0.3820 C   0  0  0  0  0  0  0  0  0  0  0  0
    2.3908    0.8552    0.9092 C   0  0  0  0  0  0  0  0  0  0  0  0
   -3.5431    3.7756    0.4118 C   0  0  0  0  0  0  0  0  0  0  0  0
    5.0311   -0.0636    0.7966 C   0  0  0  0  0  0  0  0  0  0  0  0
    3.1258    0.6923    2.0865 C   0  0  0  0  0  0  0  0  0  0  0  0
    4.4449    0.2314    2.0335 C   0  0  0  0  0  0  0  0  0  0  0  0
   -3.8733    5.2159    0.0553 C   0  0  0  0  0  0  0  0  0  0  0  0
  1 31  1  0
 11  2  1  6
  2 23  1  0
  3 29  1  0
  4 16  2  0
  5 22  1  0
  5 28  1  0
  6 24  2  0
  7  9  1  0
  7 12  1  0
  7 16  1  0
 11  8  1  0
  8 24  1  0
  8 25  1  0
  9 10  1  0
  9 17  1  0
  9 18  1  0
 10 13  1  0
 11 14  1  0
 11 16  1  0
 12 14  1  0
 12 15  2  0
 13 15  1  0
 13 19  1  6
 14 20  2  0
 15 21  1  0
 20 22  1  0
 21 22  2  0
 23 24  1  0
 25 26  2  0
 25 27  1  0
 26 29  1  0
 27 30  2  0
 28 32  1  0
 29 31  2  0
 30 31  1  0
M  END
>  <PUBCHEM_COMPOUND_CID>  (2) 
42583265

>  <PUBCHEM_COMPOUND_CANONICALIZED>  (2) 
1

>  <PUBCHEM_CACTVS_COMPLEXITY>  (2) 
799

>  <PUBCHEM_CACTVS_HBOND_ACCEPTOR>  (2) 
5

>  <PUBCHEM_CACTVS_HBOND_DONOR>  (2) 
0

>  <PUBCHEM_CACTVS_ROTATABLE_BOND>  (2) 
3

>  <PUBCHEM_CACTVS_SUBSKEYS>  (2) 
AAADceB7MQBEAAAAAAAAAAAAAAAAAWLAAAA8YIAAAAAAAFixQAAAHwYAAAAADY6l2CqyxoMABAiIAiVSUACCCABhJxAIiAGGbogMZjLl97uWOCjkxBHo6Ae83PLOgEBDAAACAAAAgIYAAAQAAAAAAAAAAA==

>  <PUBCHEM_IUPAC_OPENEYE_NAME>  (2) 
(3S,9S)-3'-(4-chloro-3-fluoro-phenyl)-6-ethoxy-9,11,11-trimethyl-spiro[1-azatricyclo[6.3.1.04,12]dodeca-4,6,8(12)-triene-3,2'-thiazolidine]-2,4'-dione

>  <PUBCHEM_IUPAC_CAS_NAME>  (2) 
(3S,9S)-3'-(4-chloro-3-fluorophenyl)-6-ethoxy-9,11,11-trimethylspiro[1-azatricyclo[6.3.1.04,12]dodeca-4,6,8(12)-triene-3,2'-thiazolidine]-2,4'-dione

>  <PUBCHEM_IUPAC_NAME_MARKUP>  (2) 
(2<I>S</I>,9&apos;<I>S</I>)-3-(4-chloro-3-fluorophenyl)-6&apos;-ethoxy-9&apos;,11&apos;,11&apos;-trimethylspiro[1,3-thiazolidine-2,3&apos;-1-azatricyclo[6.3.1.0<SUP>4,12</SUP>]dodeca-4,6,8(12)-triene]-2&apos;,4-dione

>  <PUBCHEM_IUPAC_NAME>  (2) 
(2S,9'S)-3-(4-chloro-3-fluorophenyl)-6'-ethoxy-9',11',11'-trimethylspiro[1,3-thiazolidine-2,3'-1-azatricyclo[6.3.1.04,12]dodeca-4,6,8(12)-triene]-2',4-dione

>  <PUBCHEM_IUPAC_SYSTEMATIC_NAME>  (2) 
(2S,9'S)-3-(4-chloranyl-3-fluoranyl-phenyl)-6'-ethoxy-9',11',11'-trimethyl-spiro[1,3-thiazolidine-2,3'-1-azatricyclo[6.3.1.04,12]dodeca-4,6,8(12)-triene]-2',4-dione

>  <PUBCHEM_IUPAC_TRADITIONAL_NAME>  (2) 
(3S,9S)-3'-(4-chloro-3-fluoro-phenyl)-6-ethoxy-9,11,11-trimethyl-spiro[1-azatricyclo[6.3.1.04,12]dodeca-4,6,8(12)-triene-3,2'-thiazolidine]-2,4'-quinone

>  <PUBCHEM_IUPAC_INCHI>  (2) 
InChI=1S/C24H24ClFN2O3S/c1-5-31-15-9-16-13(2)11-23(3,4)28-21(16)17(10-15)24(22(28)30)27(20(29)12-32-24)14-6-7-18(25)19(26)8-14/h6-10,13H,5,11-12H2,1-4H3/t13-,24-/m0/s1

>  <PUBCHEM_IUPAC_INCHIKEY>  (2) 
DRQDMXBXMIYYEV-RZFZLAGVSA-N

>  <PUBCHEM_XLOGP3_AA>  (2) 
4.9

>  <PUBCHEM_EXACT_MASS>  (2) 
474.1180197

>  <PUBCHEM_MOLECULAR_FORMULA>  (2) 
C24H24ClFN2O3S

>  <PUBCHEM_MOLECULAR_WEIGHT>  (2) 
475.0

>  <PUBCHEM_CACTVS_TPSA>  (2) 
75.2

>  <PUBCHEM_MONOISOTOPIC_WEIGHT>  (2) 
474.1180197

>  <PUBCHEM_TOTAL_CHARGE>  (2) 
0

>  <PUBCHEM_HEAVY_ATOM_COUNT>  (2) 
32

>  <PUBCHEM_ATOM_DEF_STEREO_COUNT>  (2) 
2

>  <PUBCHEM_ATOM_UDEF_STEREO_COUNT>  (2) 
0

>  <PUBCHEM_BOND_DEF_STEREO_COUNT>  (2) 
0

>  <PUBCHEM_BOND_UDEF_STEREO_COUNT>  (2) 
0

>  <PUBCHEM_ISOTOPIC_ATOM_COUNT>  (2) 
0

>  <PUBCHEM_COMPONENT_COUNT>  (2) 
1

>  <PUBCHEM_CACTVS_TAUTO_COUNT>  (2) 
-1

>  <PUBCHEM_COORDINATE_TYPE>  (2) 
1
5
255

>  <PUBCHEM_BONDANNOTATIONS>  (2) 
12  14  8
12  15  8
13  19  5
14  20  8
15  21  8
20  22  8
21  22  8
25  26  8
25  27  8
26  29  8
27  30  8
29  31  8
30  31  8
11  8  6

$$$$
decoy_3
     RDKit          3D

 27 29  0  0  0  0  0  0  0  0999 V2000
    3.0851   -1.8002    1.1669 O   0  0  0  0  0  0  0  0  0  0  0  0
   -2.9313   -3.3861   -1.1088 O   0  0  0  0  0  0  0  0  0  0  0  0
    4.1556    2.1020   -0.6348 O   0  0  0  0  0  0  0  0  0  0  0  0
    6.2196    1.4950    0.1650 O   0  0  0  0  0  0  0  0  0  0  0  0
   -1.4838    0.6338   -0.7914 N   0  0  0  0  0  0  0  0  0  0  0  0
   -0.2980    0.2101   -0.2967 C   0  0  0  0  0  0  0  0  0  0  0  0
   -0.1845   -1.1558   -0.3998 C   0  0  0  0  0  0  0  0  0  0  0  0
   -2.1331   -0.4848   -1.2165 C   0  0  0  0  0  0  0  0  0  0  0  0
   -1.3531   -1.6225   -0.9834 C   0  0  0  0  0  0  0  0  0  0  0  0
   -2.0144    2.0040   -0.7680 C   0  0  0  0  0  0  0  0  0  0  0  0
    0.9282   -1.8357    0.1032 C   0  0  0  0  0  0  0  0  0  0  0  0
    0.7110    0.9758    0.2974 C   0  0  0  0  0  0  0  0  0  0  0  0
   -3.5234   -0.4948   -1.7894 C   0  0  0  0  0  0  0  0  0  0  0  0
    1.9702   -1.0934    0.6873 C   0  0  0  0  0  0  0  0  0  0  0  0
   -2.9772    2.1740    0.3772 C   0  0  0  0  0  0  0  0  0  0  0  0
   -1.7331   -3.0265   -1.2585 C   0  0  0  0  0  0  0  0  0  0  0  0
    1.8493    0.3170    0.7882 C   0  0  0  0  0  0  0  0  0  0  0  0
   -2.5041    2.1947    1.7000 C   0  0  0  0  0  0  0  0  0  0  0  0
   -4.3577    2.2877    0.1395 C   0  0  0  0  0  0  0  0  0  0  0  0
   -0.7282   -4.0433   -1.6990 C   0  0  0  0  0  0  0  0  0  0  0  0
    4.3706   -1.2544    1.4734 C   0  0  0  0  0  0  0  0  0  0  0  0
    5.2940   -1.2923    0.2473 C   0  0  0  0  0  0  0  0  0  0  0  0
   -3.3981    2.3289    2.7666 C   0  0  0  0  0  0  0  0  0  0  0  0
   -5.2483    2.4212    1.2092 C   0  0  0  0  0  0  0  0  0  0  0  0
    4.9373   -0.2654   -0.8387 C   0  0  0  0  0  0  0  0  0  0  0  0
   -4.7691    2.4418    2.5216 C   0  0  0  0  0  0  0  0  0  0  0  0
    5.1405    1.1509   -0.3880 C   0  0  0  0  0  0  0  0  0  0  0  0
  1 14  1  0
  1 21  1  0
  2 16  2  0
  3 27  1  0
  4 27  2  0
  5  6  1  0
  5  8  1  0
  5 10  1  0
  6  7  2  0
  6 12  1  0
  7  9  1  0
  7 11  1  0
  8  9  2  0
  8 13  1  0
  9 16  1  0
 10 15  1  0
 11 14  2  0
 12 17  2  0
 14 17  1  0
 15 18  2  0
 15 19  1  0
 16 20  1  0
 18 23  1  0
 19 24  2  0
 21 22  1  0
 22 25  1  0
 23 26  2  0
 24 26  1  0
 25 27  1  0
M  END
>  <PUBCHEM_COMPOUND_CID>  (3) 
155543331

>  <PUBCHEM_COMPOUND_CANONICALIZED>  (3) 
1

>  <PUBCHEM_CACTVS_COMPLEXITY>  (3) 
516

>  <PUBCHEM_CACTVS_HBOND_ACCEPTOR>  (3) 
4

>  <PUBCHEM_CACTVS_HBOND_DONOR>  (3) 
1

>  <PUBCHEM_CACTVS_ROTATABLE_BOND>  (3) 
8

>  <PUBCHEM_CACTVS_SUBSKEYS>  (3) 
AAADceB6OAAAAAAAAAAAAAAAAAAAAWAAAAAwYAAAAAAAAFgB9AAAHgAACAAADAzhngYyzvMMFgCoA6TyTACCiCAlIiAI2CE+bNgMJvrEtZuGeajkwBHI6Uf+3PPOgEABAAACAAAAgAIAAAQAAAAAAAAAAA==

>  <PUBCHEM_IUPAC_OPENEYE_NAME>  (3) 
4-(3-acetyl-1-benzyl-2-methyl-indol-5-yl)oxybutanoic acid

>  <PUBCHEM_IUPAC_CAS_NAME>  (3) 
4-[[3-acetyl-2-methyl-1-(phenylmethyl)-5-indolyl]oxy]butanoic acid

>  <PUBCHEM_IUPAC_NAME_MARKUP>  (3) 
4-(3-acetyl-1-benzyl-2-methylindol-5-yl)oxybutanoic acid

>  <PUBCHEM_IUPAC_NAME>  (3) 
4-(3-acetyl-1-benzyl-2-methylindol-5-yl)oxybutanoic acid

>  <PUBCHEM_IUPAC_SYSTEMATIC_NAME>  (3) 
4-[3-ethanoyl-2-methyl-1-(phenylmethyl)indol-5-yl]oxybutanoic acid

>  <PUBCHEM_IUPAC_TRADITIONAL_NAME>  (3) 
4-(3-acetyl-1-benzyl-2-methyl-indol-5-yl)oxybutyric acid

>  <PUBCHEM_IUPAC_INCHI>  (3) 
InChI=1S/C22H23NO4/c1-15-22(16(2)24)19-13-18(27-12-6-9-21(25)26)10-11-20(19)23(15)14-17-7-4-3-5-8-17/h3-5,7-8,10-11,13H,6,9,12,14H2,1-2H3,(H,25,26)

>  <PUBCHEM_IUPAC_INCHIKEY>  (3) 
AJGIAOZUTGDMKP-UHFFFAOYSA-N

>  <PUBCHEM_XLOGP3_AA>  (3) 
3.5

>  <PUBCHEM_EXACT_MASS>  (3) 
365.16270821

>  <PUBCHEM_MOLECULAR_FORMULA>  (3) 
C22H23NO4

>  <PUBCHEM_MOLECULAR_WEIGHT>  (3) 
365.4

>  <PUBCHEM_CACTVS_TPSA>  (3) 
68.5

>  <PUBCHEM_MONOISOTOPIC_WEIGHT>  (3) 
365.16270821

>  <PUBCHEM_TOTAL_CHARGE>  (3) 
0

>  <PUBCHEM_HEAVY_ATOM_COUNT>  (3) 
27

>  <PUBCHEM_ATOM_DEF_STEREO_COUNT>  (3) 
0

>  <PUBCHEM_ATOM_UDEF_STEREO_COUNT>  (3) 
0

>  <PUBCHEM_BOND_DEF_STEREO_COUNT>  (3) 
0

>  <PUBCHEM_BOND_UDEF_STEREO_COUNT>  (3) 
0

>  <PUBCHEM_ISOTOPIC_ATOM_COUNT>  (3) 
0

>  <PUBCHEM_COMPONENT_COUNT>  (3) 
1

>  <PUBCHEM_CACTVS_TAUTO_COUNT>  (3) 
-1

>  <PUBCHEM_COORDINATE_TYPE>  (3) 
1
5
255

>  <PUBCHEM_BONDANNOTATIONS>  (3) 
11  14  8
12  17  8
14  17  8
15  18  8
15  19  8
18  23  8
19  24  8
23  26  8
24  26  8
5  6  8
5  8  8
6  12  8
6  7  8
7  11  8
7  9  8
8  9  8

$$$$
decoy_4
     RDKit          3D

 28 30  0  0  0  0  0  0  0  0999 V2000
   -2.7404   -1.5148   -0.2143 O   0  0  0  0  0  0  0  0  0  0  0  0
    0.1347    7.8747    0.7747 O   0  0  0  0  0  0  0  0  0  0  0  0
   -1.0638    7.7916   -1.1395 O   0  0  0  0  0  0  0  0  0  0  0  0
   -0.3546   -1.3466   -0.1210 N   0  0  0  0  0  0  0  0  0  0  0  0
   -0.4928    7.1645   -0.2232 N   0  0  0  0  0  0  0  0  0  0  0  0
   -4.0023    1.7879   -0.2170 N   0  0  0  0  0  0  0  0  0  0  0  0
   -0.4709    1.4193   -0.1543 C   0  0  0  0  0  0  0  0  0  0  0  0
    0.8111   -0.6469   -0.0785 C   0  0  0  0  0  0  0  0  0  0  0  0
   -0.4895    2.9027   -0.1698 C   0  0  0  0  0  0  0  0  0  0  0  0
    0.7640    0.7564   -0.0827 C   0  0  0  0  0  0  0  0  0  0  0  0
    2.0975   -1.3864   -0.0084 C   0  0  0  0  0  0  0  0  0  0  0  0
   -1.6584    0.6562   -0.1992 C   0  0  0  0  0  0  0  0  0  0  0  0
   -1.5729   -0.7436   -0.1794 C   0  0  0  0  0  0  0  0  0  0  0  0
    3.2818   -0.8536   -0.5532 C   0  0  0  0  0  0  0  0  0  0  0  0
    2.1392   -2.6620    0.5834 C   0  0  0  0  0  0  0  0  0  0  0  0
   -2.7278   -2.9391   -0.1811 C   0  0  0  0  0  0  0  0  0  0  0  0
   -1.1250    3.5982   -1.2102 C   0  0  0  0  0  0  0  0  0  0  0  0
    0.1575    3.6276    0.8427 C   0  0  0  0  0  0  0  0  0  0  0  0
    4.5202   -2.8270    0.1351 C   0  0  0  0  0  0  0  0  0  0  0  0
   -4.1575   -3.4767   -0.2261 C   0  0  0  0  0  0  0  0  0  0  0  0
    4.4803   -1.5701   -0.4841 C   0  0  0  0  0  0  0  0  0  0  0  0
    3.3388   -3.3761    0.6521 C   0  0  0  0  0  0  0  0  0  0  0  0
   -1.1291    4.9958   -1.2282 C   0  0  0  0  0  0  0  0  0  0  0  0
    0.1540    5.0253    0.8257 C   0  0  0  0  0  0  0  0  0  0  0  0
   -0.4908    5.7252   -0.2087 C   0  0  0  0  0  0  0  0  0  0  0  0
   -4.9551   -3.0698    1.0110 C   0  0  0  0  0  0  0  0  0  0  0  0
    5.7983   -3.6112    0.1728 C   0  0  0  0  0  0  0  0  0  0  0  0
   -2.9599    1.2851   -0.2093 C   0  0  0  0  0  0  0  0  0  0  0  0
  1 13  1  0
  1 16  1  0
  2  5  1  0
  3  5  2  0
  4  8  2  0
  4 13  1  0
  5 25  1  0
  6 28  3  0
  7  9  1  0
  7 10  2  0
  7 12  1  0
  8 10  1  0
  8 11  1  0
  9 17  2  0
  9 18  1  0
 11 14  2  0
 11 15  1  0
 12 13  2  0
 12 28  1  0
 14 21  1  0
 15 22  2  0
 16 20  1  0
 17 23  1  0
 18 24  2  0
 19 21  2  0
 19 22  1  0
 19 27  1  0
 20 26  1  0
 23 25  2  0
 24 25  1  0
M  CHG  2   2  -1   5   1
M  END
>  <PUBCHEM_COMPOUND_CID>  (4) 
169450172

>  <PUBCHEM_COMPOUND_CANONICALIZED>  (4) 
1

>  <PUBCHEM_CACTVS_COMPLEXITY>  (4) 
553

>  <PUBCHEM_CACTVS_HBOND_ACCEPTOR>  (4) 
5

>  <PUBCHEM_CACTVS_HBOND_DONOR>  (4) 
0

>  <PUBCHEM_CACTVS_ROTATABLE_BOND>  (4) 
5

>  <PUBCHEM_CACTVS_SUBSKEYS>  (4) 
AAADceB7MAAAAAAAAAAAAAAAAAAAAAAAAAA8YIAAAAAAAAAB0AAAHgAEAAAADAihngIyxJIYVACxByRiRwCiiCAhIiAomCA0bJoMpuLEsZuOOCjkwBHI6A+Q0OEOyAAAAAAAAACQAAAAAAAAAAAAAAAAAA==

>  <PUBCHEM_IUPAC_OPENEYE_NAME>  (4) 
4-(4-nitrophenyl)-2-propoxy-6-(p-tolyl)pyridine-3-carbonitrile

>  <PUBCHEM_IUPAC_CAS_NAME>  (4) 
6-(4-methylphenyl)-4-(4-nitrophenyl)-2-propoxy-3-pyridinecarbonitrile

>  <PUBCHEM_IUPAC_NAME_MARKUP>  (4) 
6-(4-methylphenyl)-4-(4-nitrophenyl)-2-propoxypyridine-3-carbonitrile

>  <PUBCHEM_IUPAC_NAME>  (4) 
6-(4-methylphenyl)-4-(4-nitrophenyl)-2-propoxypyridine-3-carbonitrile

>  <PUBCHEM_IUPAC_SYSTEMATIC_NAME>  (4) 
6-(4-methylphenyl)-4-(4-nitrophenyl)-2-propoxy-pyridine-3-carbonitrile

>  <PUBCHEM_IUPAC_TRADITIONAL_NAME>  (4) 
4-(4-nitrophenyl)-2-propoxy-6-(p-tolyl)nicotinonitrile

>  <PUBCHEM_IUPAC_INCHI>  (4) 
InChI=1S/C22H19N3O3/c1-3-12-28-22-20(14-23)19(16-8-10-18(11-9-16)25(26)27)13-21(24-22)17-6-4-15(2)5-7-17/h4-11,13H,3,12H2,1-2H3

>  <PUBCHEM_IUPAC_INCHIKEY>  (4) 
SZXRICGJAJGTRE-UHFFFAOYSA-N

>  <PUBCHEM_XLOGP3_AA>  (4) 
5.3

>  <PUBCHEM_EXACT_MASS>  (4) 
373.14264148

>  <PUBCHEM_MOLECULAR_FORMULA>  (4) 
C22H19N3O3

>  <PUBCHEM_MOLECULAR_WEIGHT>  (4) 
373.4

>  <PUBCHEM_CACTVS_TPSA>  (4) 
91.7

>  <PUBCHEM_MONOISOTOPIC_WEIGHT>  (4) 
373.14264148

>  <PUBCHEM_TOTAL_CHARGE>  (4) 
0

>  <PUBCHEM_HEAVY_ATOM_COUNT>  (4) 
28

>  <PUBCHEM_ATOM_DEF_STEREO_COUNT>  (4) 
0

>  <PUBCHEM_ATOM_UDEF_STEREO_COUNT>  (4) 
0

>  <PUBCHEM_BOND_DEF_STEREO_COUNT>  (4) 
0

>  <PUBCHEM_BOND_UDEF_STEREO_COUNT>  (4) 
0

>  <PUBCHEM_ISOTOPIC_ATOM_COUNT>  (4) 
0

>  <PUBCHEM_COMPONENT_COUNT>  (4) 
1

>  <PUBCHEM_CACTVS_TAUTO_COUNT>  (4) 
-1

>  <PUBCHEM_COORDINATE_TYPE>  (4) 
1
5
255

>  <PUBCHEM_BONDANNOTATIONS>  (4) 
11  14  8
11  15  8
12  13  8
14  21  8
15  22  8
17  23  8
18  24  8
19  21  8
19  22  8
23  25  8
24  25  8
4  13  8
4  8  8
7  10  8
7  12  8
8  10  8
9  17  8
9  18  8

$$$$
decoy_5
     RDKit          3D

 36 40  0  0  0  0  0  0  0  0999 V2000
    4.0866   -1.2425    2.7180 O   0  0  0  0  0  0  0  0  0  0  0  0
    5.9684   -0.8525   -1.7351 O   0  0  0  0  0  0  0  0  0  0  0  0
    6.1825   -1.5947    1.0561 O   0  0  0  0  0  0  0  0  0  0  0  0
   -4.0870    1.0996    1.0105 N   0  0  0  0  0  0  0  0  0  0  0  0
   -4.1436   -0.0750    0.3991 N   0  0  0  0  0  0  0  0  0  0  0  0
   -0.8127    2.2407   -1.7524 N   0  0  0  0  0  0  0  0  0  0  0  0
    1.5038    1.8463   -1.8336 N   0  0  0  0  0  0  0  0  0  0  0  0
    0.5514    3.5421   -3.2564 N   0  0  0  0  0  0  0  0  0  0  0  0
   -2.3047    0.9731   -0.2887 C   0  0  0  0  0  0  0  0  0  0  0  0
   -3.0636   -0.1853   -0.4025 C   0  0  0  0  0  0  0  0  0  0  0  0
   -0.9711    1.2566   -0.8268 C   0  0  0  0  0  0  0  0  0  0  0  0
   -2.9824    1.7637    0.6133 C   0  0  0  0  0  0  0  0  0  0  0  0
   -2.7867   -1.3846   -1.2290 C   0  0  0  0  0  0  0  0  0  0  0  0
    1.4035    0.8669   -0.8909 C   0  0  0  0  0  0  0  0  0  0  0  0
    0.1385    0.5384   -0.3798 C   0  0  0  0  0  0  0  0  0  0  0  0
    2.6315    0.1830   -0.4130 C   0  0  0  0  0  0  0  0  0  0  0  0
   -5.0506    1.5334    1.9882 C   0  0  0  0  0  0  0  0  0  0  0  0
    3.7097   -0.0164   -1.2880 C   0  0  0  0  0  0  0  0  0  0  0  0
    2.7535   -0.2358    0.9183 C   0  0  0  0  0  0  0  0  0  0  0  0
   -2.0314   -1.3043   -2.4136 C   0  0  0  0  0  0  0  0  0  0  0  0
   -3.3259   -2.6258   -0.8513 C   0  0  0  0  0  0  0  0  0  0  0  0
    3.9376   -0.8330    1.3823 C   0  0  0  0  0  0  0  0  0  0  0  0
    4.9032   -0.6253   -0.8483 C   0  0  0  0  0  0  0  0  0  0  0  0
    5.0193   -1.0193    0.5087 C   0  0  0  0  0  0  0  0  0  0  0  0
    0.4118    2.5291   -2.2667 C   0  0  0  0  0  0  0  0  0  0  0  0
   -4.7112    2.4911    2.9686 C   0  0  0  0  0  0  0  0  0  0  0  0
   -6.3414    0.9710    1.9992 C   0  0  0  0  0  0  0  0  0  0  0  0
   -1.7948   -2.4480   -3.1821 C   0  0  0  0  0  0  0  0  0  0  0  0
   -3.0947   -3.7662   -1.6263 C   0  0  0  0  0  0  0  0  0  0  0  0
   -5.6485    2.8762    3.9320 C   0  0  0  0  0  0  0  0  0  0  0  0
   -7.2754    1.3615    2.9641 C   0  0  0  0  0  0  0  0  0  0  0  0
   -2.3240   -3.6781   -2.7872 C   0  0  0  0  0  0  0  0  0  0  0  0
   -6.9300    2.3123    3.9297 C   0  0  0  0  0  0  0  0  0  0  0  0
    3.1018   -1.0775    3.7310 C   0  0  0  0  0  0  0  0  0  0  0  0
    5.9789   -0.4909   -3.1121 C   0  0  0  0  0  0  0  0  0  0  0  0
    7.4604   -1.6669    0.4322 C   0  0  0  0  0  0  0  0  0  0  0  0
  1 22  1  0
  1 34  1  0
  2 23  1  0
  2 35  1  0
  3 24  1  0
  3 36  1  0
  4  5  1  0
  4 12  1  0
  4 17  1  0
  5 10  2  0
  6 11  2  0
  6 25  1  0
  7 14  1  0
  7 25  2  0
  8 25  1  0
  9 10  1  0
  9 11  1  0
  9 12  2  0
 10 13  1  0
 11 15  1  0
 13 20  2  0
 13 21  1  0
 14 15  2  0
 14 16  1  0
 16 18  2  0
 16 19  1  0
 17 26  2  0
 17 27  1  0
 18 23  1  0
 19 22  2  0
 20 28  1  0
 21 29  2  0
 22 24  1  0
 23 24  2  0
 26 30  1  0
 27 31  2  0
 28 32  2  0
 29 32  1  0
 30 33  2  0
 31 33  1  0
M  END
>  <PUBCHEM_COMPOUND_CID>  (5) 
169450430

>  <PUBCHEM_COMPOUND_CANONICALIZED>  (5) 
1

>  <PUBCHEM_CACTVS_COMPLEXITY>  (5) 
660

>  <PUBCHEM_CACTVS_HBOND_ACCEPTOR>  (5) 
7

>  <PUBCHEM_CACTVS_HBOND_DONOR>  (5) 
1

>  <PUBCHEM_CACTVS_ROTATABLE_BOND>  (5) 
7

>  <PUBCHEM_CACTVS_SUBSKEYS>  (5) 
AAADceB7sAAAAAAAAAAAAAAAAAAAAWAAAAA8YMEAAAAAAAAB9AAAHgAYAAAADAzBngY/1pZIFACiAzRnZACSjCkxoqAZmCA+7JiNL+LE+duEtCptyBfK6Cew8P8OIAABCAAAQABAAAIQAACAAAAAAAAAAA==

>  <PUBCHEM_IUPAC_OPENEYE_NAME>  (5) 
4-(1,3-diphenylpyrazol-4-yl)-6-(3,4,5-trimethoxyphenyl)pyrimidin-2-amine

>  <PUBCHEM_IUPAC_CAS_NAME>  (5) 
4-(1,3-diphenyl-4-pyrazolyl)-6-(3,4,5-trimethoxyphenyl)-2-pyrimidinamine

>  <PUBCHEM_IUPAC_NAME_MARKUP>  (5) 
4-(1,3-diphenylpyrazol-4-yl)-6-(3,4,5-trimethoxyphenyl)pyrimidin-2-amine

>  <PUBCHEM_IUPAC_NAME>  (5) 
4-(1,3-diphenylpyrazol-4-yl)-6-(3,4,5-trimethoxyphenyl)pyrimidin-2-amine

>  <PUBCHEM_IUPAC_SYSTEMATIC_NAME>  (5) 
4-(1,3-diphenylpyrazol-4-yl)-6-(3,4,5-trimethoxyphenyl)pyrimidin-2-amine

>  <PUBCHEM_IUPAC_TRADITIONAL_NAME>  (5) 
[4-(1,3-diphenylpyrazol-4-yl)-6-(3,4,5-trimethoxyphenyl)pyrimidin-2-yl]amine

>  <PUBCHEM_IUPAC_INCHI>  (5) 
InChI=1S/C28H25N5O3/c1-34-24-14-19(15-25(35-2)27(24)36-3)22-16-23(31-28(29)30-22)21-17-33(20-12-8-5-9-13-20)32-26(21)18-10-6-4-7-11-18/h4-17H,1-3H3,(H2,29,30,31)

>  <PUBCHEM_IUPAC_INCHIKEY>  (5) 
MEMCKFAZJRMZAC-UHFFFAOYSA-N

>  <PUBCHEM_XLOGP3_AA>  (5) 
4.7

>  <PUBCHEM_EXACT_MASS>  (5) 
479.19573968

>  <PUBCHEM_MOLECULAR_FORMULA>  (5) 
C28H25N5O3

>  <PUBCHEM_MOLECULAR_WEIGHT>  (5) 
479.5

>  <PUBCHEM_CACTVS_TPSA>  (5) 
97.3

>  <PUBCHEM_MONOISOTOPIC_WEIGHT>  (5) 
479.19573968

>  <PUBCHEM_TOTAL_CHARGE>  (5) 
0

>  <PUBCHEM_HEAVY_ATOM_COUNT>  (5) 
36

>  <PUBCHEM_ATOM_DEF_STEREO_COUNT>  (5) 
0

>  <PUBCHEM_ATOM_UDEF_STEREO_COUNT>  (5) 
0

>  <PUBCHEM_BOND_DEF_STEREO_COUNT>  (5) 
0

>  <PUBCHEM_BOND_UDEF_STEREO_COUNT>  (5) 
0

>  <PUBCHEM_ISOTOPIC_ATOM_COUNT>  (5) 
0

>  <PUBCHEM_COMPONENT_COUNT>  (5) 
1

>  <PUBCHEM_CACTVS_TAUTO_COUNT>  (5) 
-1

>  <PUBCHEM_COORDINATE_TYPE>  (5) 
1
5
255

>  <PUBCHEM_BONDANNOTATIONS>  (5) 
11  15  8
13  20  8
13  21  8
14  15  8
16  18  8
16  19  8
17  26  8
17  27  8
18  23  8
19  22  8
20  28  8
21  29  8
22  24  8
23  24  8
26  30  8
27  31  8
28  32  8
29  32  8
30  33  8
31  33  8
4  12  8
4  5  8
5  10  8
6  11  8
6  25  8
7  14  8
7  25  8
9  10  8
9  12  8

$$$$
decoy_6
     RDKit          3D

 26 29  0  0  0  0  0  0  0  0999 V2000
   -0.0967    4.3117    1.9396 S   0  0  0  0  0  0  0  0  0  0  0  0
    5.0429   -1.0664    0.9141 O   0  0  0  0  0  0  0  0  0  0  0  0
   -2.8024    1.5974   -1.0342 O   0  0  0  0  0  0  0  0  0  0  0  0
    2.6694   -0.5371   -0.1871 N   0  0  0  0  0  0  0  0  0  0  0  0
   -0.6269    2.1088    0.8676 N   0  0  0  0  0  0  0  0  0  0  0  0
    1.4717    2.0604    1.6864 N   0  0  0  0  0  0  0  0  0  0  0  0
   -4.2581    2.8441    0.2883 N   0  0  0  0  0  0  0  0  0  0  0  0
   -5.3773    2.4452   -0.4599 N   0  0  0  0  0  0  0  0  0  0  0  0
    2.0818   -0.3218    1.1538 C   0  0  0  0  0  0  0  0  0  0  0  0
    3.1667   -1.9190   -0.3794 C   0  0  0  0  0  0  0  0  0  0  0  0
    3.7163    0.4530   -0.5139 C   0  0  0  0  0  0  0  0  0  0  0  0
    1.1543    0.8576    1.1349 C   0  0  0  0  0  0  0  0  0  0  0  0
   -0.1483    0.8773    0.6246 C   0  0  0  0  0  0  0  0  0  0  0  0
    4.6497   -2.0776    0.0128 C   0  0  0  0  0  0  0  0  0  0  0  0
    5.0297    0.1904    0.2615 C   0  0  0  0  0  0  0  0  0  0  0  0
    0.3413    2.7615    1.4856 C   0  0  0  0  0  0  0  0  0  0  0  0
   -0.9229   -0.2790    0.1418 C   0  0  0  0  0  0  0  0  0  0  0  0
   -1.7684    2.8295    0.7051 C   0  0  0  0  0  0  0  0  0  0  0  0
   -1.6570    4.1139    1.2658 C   0  0  0  0  0  0  0  0  0  0  0  0
   -0.5084   -0.9857   -0.9957 C   0  0  0  0  0  0  0  0  0  0  0  0
   -2.0655   -0.6986    0.8383 C   0  0  0  0  0  0  0  0  0  0  0  0
   -2.9489    2.3753   -0.0542 C   0  0  0  0  0  0  0  0  0  0  0  0
   -1.2346   -2.0948   -1.4387 C   0  0  0  0  0  0  0  0  0  0  0  0
   -2.7932   -1.8064    0.3945 C   0  0  0  0  0  0  0  0  0  0  0  0
   -2.3906   -2.5025   -0.7555 C   0  0  0  0  0  0  0  0  0  0  0  0
   -3.1480   -3.7151   -1.2087 C   0  0  0  0  0  0  0  0  0  0  0  0
  1 16  1  0
  1 19  1  0
  2 14  1  0
  2 15  1  0
  3 22  2  0
  4  9  1  0
  4 10  1  0
  4 11  1  0
  5 13  1  0
  5 16  1  0
  5 18  1  0
  6 12  1  0
  6 16  2  0
  7  8  1  0
  7 22  1  0
  9 12  1  0
 10 14  1  0
 11 15  1  0
 12 13  2  0
 13 17  1  0
 17 20  2  0
 17 21  1  0
 18 19  2  0
 18 22  1  0
 20 23  1  0
 21 24  2  0
 23 25  2  0
 24 25  1  0
 25 26  1  0
M  END
>  <PUBCHEM_COMPOUND_CID>  (6) 
165412710

>  <PUBCHEM_COMPOUND_CANONICALIZED>  (6) 
1

>  <PUBCHEM_CACTVS_COMPLEXITY>  (6) 
496

>  <PUBCHEM_CACTVS_HBOND_ACCEPTOR>  (6) 
6

>  <PUBCHEM_CACTVS_HBOND_DONOR>  (6) 
2

>  <PUBCHEM_CACTVS_ROTATABLE_BOND>  (6) 
4

>  <PUBCHEM_CACTVS_SUBSKEYS>  (6) 
AAADceB7sABAAAAAAAAAAAAAAAAAAWLAAAA8QAAAAAAWAAAB8AAAHgQYAAAADAjl3gazkZduHAisAyVydACC8K1nGrobuDW4dNiKaOLg2TGXIAhogALYyKcQgMAOQAAAAAAAAACAAAAAAAAAAAAAAAAAAA==

>  <PUBCHEM_IUPAC_OPENEYE_NAME>  (6) 
6-(morpholinomethyl)-5-(p-tolyl)imidazo[2,1-b]thiazole-3-carbohydrazide

>  <PUBCHEM_IUPAC_CAS_NAME>  (6) 
5-(4-methylphenyl)-6-(4-morpholinylmethyl)-3-imidazo[2,1-b]thiazolecarbohydrazide

>  <PUBCHEM_IUPAC_NAME_MARKUP>  (6) 
5-(4-methylphenyl)-6-(morpholin-4-ylmethyl)imidazo[2,1-b][1,3]thiazole-3-carbohydrazide

>  <PUBCHEM_IUPAC_NAME>  (6) 
5-(4-methylphenyl)-6-(morpholin-4-ylmethyl)imidazo[2,1-b][1,3]thiazole-3-carbohydrazide

>  <PUBCHEM_IUPAC_SYSTEMATIC_NAME>  (6) 
5-(4-methylphenyl)-6-(morpholin-4-ylmethyl)imidazo[2,1-b][1,3]thiazole-3-carbohydrazide

>  <PUBCHEM_IUPAC_TRADITIONAL_NAME>  (6) 
6-(morpholinomethyl)-5-(p-tolyl)imidazo[2,1-b]thiazole-3-carbohydrazide

>  <PUBCHEM_IUPAC_INCHI>  (6) 
InChI=1S/C18H21N5O2S/c1-12-2-4-13(5-3-12)16-14(10-22-6-8-25-9-7-22)20-18-23(16)15(11-26-18)17(24)21-19/h2-5,11H,6-10,19H2,1H3,(H,21,24)

>  <PUBCHEM_IUPAC_INCHIKEY>  (6) 
MSIRVCGEZTUEOG-UHFFFAOYSA-N

>  <PUBCHEM_XLOGP3_AA>  (6) 
2.3

>  <PUBCHEM_EXACT_MASS>  (6) 
371.14159610

>  <PUBCHEM_MOLECULAR_FORMULA>  (6) 
C18H21N5O2S

>  <PUBCHEM_MOLECULAR_WEIGHT>  (6) 
371.5

>  <PUBCHEM_CACTVS_TPSA>  (6) 
113

>  <PUBCHEM_MONOISOTOPIC_WEIGHT>  (6) 
371.14159610

>  <PUBCHEM_TOTAL_CHARGE>  (6) 
0

>  <PUBCHEM_HEAVY_ATOM_COUNT>  (6) 
26

>  <PUBCHEM_ATOM_DEF_STEREO_COUNT>  (6) 
0

>  <PUBCHEM_ATOM_UDEF_STEREO_COUNT>  (6) 
0

>  <PUBCHEM_BOND_DEF_STEREO_COUNT>  (6) 
0

>  <PUBCHEM_BOND_UDEF_STEREO_COUNT>  (6) 
0

>  <PUBCHEM_ISOTOPIC_ATOM_COUNT>  (6) 
0

>  <PUBCHEM_COMPONENT_COUNT>  (6) 
1

>  <PUBCHEM_CACTVS_TAUTO_COUNT>  (6) 
-1

>  <PUBCHEM_COORDINATE_TYPE>  (6) 
1
5
255

>  <PUBCHEM_BONDANNOTATIONS>  (6) 
1  16  8
1  19  8
12  13  8
17  20  8
17  21  8
18  19  8
20  23  8
21  24  8
23  25  8
24  25  8
5  13  8
5  16  8
5  18  8
6  12  8
6  16  8

$$$$
decoy_7
     RDKit          3D

 26 29  0  0  1  0  0  0  0  0999 V2000
    1.0678    3.4026    1.8781 S   0  0  0  0  0  0  0  0  0  0  0  0
    3.8598   -3.0718    1.0469 S   0  0  0  0  0  0  0  0  0  0  0  0
   -0.5831    0.1664   -3.2915 O   0  0  0  0  0  0  0  0  0  0  0  0
   -3.2572   -1.2671    1.4508 O   0  0  0  0  0  0  0  0  0  0  0  0
   -1.2605    4.9154   -0.8203 O   0  0  0  0  0  0  0  0  0  0  0  0
    1.1596    1.0547    0.3037 N   0  0  0  0  0  0  0  0  0  0  0  0
    2.0621    0.4812    1.1964 N   0  0  0  0  0  0  0  0  0  0  0  0
   -0.1171    2.9181   -0.4288 N   0  0  0  0  0  0  0  0  0  0  0  0
    0.8854    0.1639   -0.8180 C   0  0  0  0  0  0  0  0  0  0  0  0
    1.7614   -1.0683   -0.5129 C   0  0  0  0  0  0  0  0  0  0  0  0
   -0.5902   -0.1926   -0.8890 C   0  0  0  0  0  0  0  0  0  0  0  0
    2.4105   -0.6875    0.7821 C   0  0  0  0  0  0  0  0  0  0  0  0
    0.6598    2.3885    0.4531 C   0  0  0  0  0  0  0  0  0  0  0  0
   -1.2778   -0.1843   -2.1216 C   0  0  0  0  0  0  0  0  0  0  0  0
   -1.2755   -0.5684    0.2820 C   0  0  0  0  0  0  0  0  0  0  0  0
    3.3538   -1.5388    1.5201 C   0  0  0  0  0  0  0  0  0  0  0  0
   -2.6300   -0.9094    0.2479 C   0  0  0  0  0  0  0  0  0  0  0  0
   -2.6431   -0.5280   -2.1508 C   0  0  0  0  0  0  0  0  0  0  0  0
   -3.3126   -0.8840   -0.9790 C   0  0  0  0  0  0  0  0  0  0  0  0
    3.9757   -1.2202    2.7219 C   0  0  0  0  0  0  0  0  0  0  0  0
    0.0390    4.7502    1.2001 C   0  0  0  0  0  0  0  0  0  0  0  0
   -0.5027    4.2339   -0.0818 C   0  0  0  0  0  0  0  0  0  0  0  0
    4.8236   -2.2317    3.1891 C   0  0  0  0  0  0  0  0  0  0  0  0
    4.8725   -3.3459    2.3612 C   0  0  0  0  0  0  0  0  0  0  0  0
   -1.1605    0.2188   -4.5920 C   0  0  0  0  0  0  0  0  0  0  0  0
   -4.6279   -1.6354    1.5647 C   0  0  0  0  0  0  0  0  0  0  0  0
  1 13  1  0
  1 21  1  0
  2 16  1  0
  2 24  1  0
  3 14  1  0
  3 25  1  0
  4 17  1  0
  4 26  1  0
  5 22  2  0
  6  7  1  0
  6  9  1  0
  6 13  1  0
  7 12  2  0
  8 13  2  0
  8 22  1  0
  9 10  1  0
  9 11  1  0
 10 12  1  0
 11 14  2  0
 11 15  1  0
 12 16  1  0
 14 18  1  0
 15 17  2  0
 16 20  2  0
 17 19  1  0
 18 19  2  0
 20 23  1  0
 21 22  1  0
 23 24  2  0
M  END
>  <PUBCHEM_COMPOUND_CID>  (7) 
169450203

>  <PUBCHEM_COMPOUND_CANONICALIZED>  (7) 
1

>  <PUBCHEM_CACTVS_COMPLEXITY>  (7) 
612

>  <PUBCHEM_CACTVS_HBOND_ACCEPTOR>  (7) 
6

>  <PUBCHEM_CACTVS_HBOND_DONOR>  (7) 
0

>  <PUBCHEM_CACTVS_ROTATABLE_BOND>  (7) 
5

>  <PUBCHEM_CACTVS_SUBSKEYS>  (7) 
AAADceB7MABgAAAAAAAAAAAAAAAAASIEAAAwAAAAAAAAAAABwAAAHgQIAAAADCzF2AazB4IABAisAyFyNACTGIFgKBBZiBg+DJgMJqKkuRuEMChmyBEoqAfwwPAOAQABAAAIAAACAAIAABAAAAAAAAAAAA==

>  <PUBCHEM_IUPAC_OPENEYE_NAME>  (7) 
2-[3-(2,5-dimethoxyphenyl)-5-(2-thienyl)-3,4-dihydropyrazol-2-yl]thiazol-4-one

>  <PUBCHEM_IUPAC_CAS_NAME>  (7) 
2-[3-(2,5-dimethoxyphenyl)-5-thiophen-2-yl-3,4-dihydropyrazol-2-yl]-4-thiazolone

>  <PUBCHEM_IUPAC_NAME_MARKUP>  (7) 
2-[3-(2,5-dimethoxyphenyl)-5-thiophen-2-yl-3,4-dihydropyrazol-2-yl]-1,3-thiazol-4-one

>  <PUBCHEM_IUPAC_NAME>  (7) 
2-[3-(2,5-dimethoxyphenyl)-5-thiophen-2-yl-3,4-dihydropyrazol-2-yl]-1,3-thiazol-4-one

>  <PUBCHEM_IUPAC_SYSTEMATIC_NAME>  (7) 
2-[3-(2,5-dimethoxyphenyl)-5-thiophen-2-yl-3,4-dihydropyrazol-2-yl]-1,3-thiazol-4-one

>  <PUBCHEM_IUPAC_TRADITIONAL_NAME>  (7) 
2-[5-(2,5-dimethoxyphenyl)-3-(2-thienyl)-2-pyrazolin-1-yl]-2-thiazolin-4-one

>  <PUBCHEM_IUPAC_INCHI>  (7) 
InChI=1S/C18H17N3O3S2/c1-23-11-5-6-15(24-2)12(8-11)14-9-13(16-4-3-7-25-16)20-21(14)18-19-17(22)10-26-18/h3-8,14H,9-10H2,1-2H3

>  <PUBCHEM_IUPAC_INCHIKEY>  (7) 
UMCNXIONKYGWEL-UHFFFAOYSA-N

>  <PUBCHEM_XLOGP3_AA>  (7) 
3.3

>  <PUBCHEM_EXACT_MASS>  (7) 
387.07113376

>  <PUBCHEM_MOLECULAR_FORMULA>  (7) 
C18H17N3O3S2

>  <PUBCHEM_MOLECULAR_WEIGHT>  (7) 
387.5

>  <PUBCHEM_CACTVS_TPSA>  (7) 
117

>  <PUBCHEM_MONOISOTOPIC_WEIGHT>  (7) 
387.07113376

>  <PUBCHEM_TOTAL_CHARGE>  (7) 
0

>  <PUBCHEM_HEAVY_ATOM_COUNT>  (7) 
26

>  <PUBCHEM_ATOM_DEF_STEREO_COUNT>  (7) 
0

>  <PUBCHEM_ATOM_UDEF_STEREO_COUNT>  (7) 
1

>  <PUBCHEM_BOND_DEF_STEREO_COUNT>  (7) 
0

>  <PUBCHEM_BOND_UDEF_STEREO_COUNT>  (7) 
0

>  <PUBCHEM_ISOTOPIC_ATOM_COUNT>  (7) 
0

>  <PUBCHEM_COMPONENT_COUNT>  (7) 
1

>  <PUBCHEM_CACTVS_TAUTO_COUNT>  (7) 
-1

>  <PUBCHEM_COORDINATE_TYPE>  (7) 
1
5
255

>  <PUBCHEM_BONDANNOTATIONS>  (7) 
11  14  8
11  15  8
14  18  8
15  17  8
16  20  8
17  19  8
18  19  8
2  16  8
2  24  8
20  23  8
23  24  8
9  11  3

$$$$
decoy_8
     RDKit          3D

 24 26  0  0  0  0  0  0  0  0999 V2000
    1.8757   -1.2160    4.6535 I   0  0  0  0  0  0  0  0  0  0  0  0
    3.0962   -1.2263    1.6886 O   0  0  0  0  0  0  0  0  0  0  0  0
   -2.1322    0.8443    1.6466 O   0  0  0  0  0  0  0  0  0  0  0  0
   -4.3675   -1.2898   -0.3956 N   0  0  0  0  0  0  0  0  0  0  0  0
   -5.1429    0.9284   -0.4183 N   0  0  0  0  0  0  0  0  0  0  0  0
   -2.5158   -2.0127    0.9448 N   0  0  0  0  0  0  0  0  0  0  0  0
   -6.3026   -0.7345   -1.7228 N   0  0  0  0  0  0  0  0  0  0  0  0
    4.5821    0.1672    0.3634 C   0  0  0  0  0  0  0  0  0  0  0  0
    4.3583    0.7420   -1.0293 C   0  0  0  0  0  0  0  0  0  0  0  0
    5.7277    0.2173   -0.6378 C   0  0  0  0  0  0  0  0  0  0  0  0
    4.0450   -1.2472    0.6225 C   0  0  0  0  0  0  0  0  0  0  0  0
    1.8047   -0.6760    1.6264 C   0  0  0  0  0  0  0  0  0  0  0  0
   -0.0545    0.3415    0.3890 C   0  0  0  0  0  0  0  0  0  0  0  0
    1.2353   -0.2265    0.4220 C   0  0  0  0  0  0  0  0  0  0  0  0
   -0.5601    0.9603   -0.9089 C   0  0  0  0  0  0  0  0  0  0  0  0
    1.0661   -0.5690    2.8100 C   0  0  0  0  0  0  0  0  0  0  0  0
   -0.8093    0.3819    1.5906 C   0  0  0  0  0  0  0  0  0  0  0  0
   -0.2228   -0.0359    2.7897 C   0  0  0  0  0  0  0  0  0  0  0  0
   -0.7646   -0.1078   -1.9904 C   0  0  0  0  0  0  0  0  0  0  0  0
    0.3845    2.0647   -1.4050 C   0  0  0  0  0  0  0  0  0  0  0  0
   -3.1917    0.3813    0.8492 C   0  0  0  0  0  0  0  0  0  0  0  0
   -3.3517   -0.9648    0.4480 C   0  0  0  0  0  0  0  0  0  0  0  0
   -4.1446    1.3079    0.4187 C   0  0  0  0  0  0  0  0  0  0  0  0
   -5.2513   -0.3580   -0.8367 C   0  0  0  0  0  0  0  0  0  0  0  0
  1 16  1  0
  2 11  1  0
  2 12  1  0
  3 17  1  0
  3 21  1  0
  4 22  2  0
  4 24  1  0
  5 23  1  0
  5 24  2  0
  6 22  1  0
  7 24  1  0
  8  9  1  0
  8 10  1  0
  8 11  1  0
  9 10  1  0
 12 14  1  0
 12 16  2  0
 13 14  2  0
 13 15  1  0
 13 17  1  0
 15 19  1  0
 15 20  1  0
 16 18  1  0
 17 18  2  0
 21 22  1  0
 21 23  2  0
M  END
>  <PUBCHEM_COMPOUND_CID>  (8) 
171038101

>  <PUBCHEM_COMPOUND_CANONICALIZED>  (8) 
1

>  <PUBCHEM_CACTVS_COMPLEXITY>  (8) 
410

>  <PUBCHEM_CACTVS_HBOND_ACCEPTOR>  (8) 
6

>  <PUBCHEM_CACTVS_HBOND_DONOR>  (8) 
2

>  <PUBCHEM_CACTVS_ROTATABLE_BOND>  (8) 
6

>  <PUBCHEM_CACTVS_SUBSKEYS>  (8) 
AAADceB7sAAAAgAAAAAAAAAAGAAAAAAAAAA8QAAAAAAAAAABwAAAHgAwAAAADQTjmgY/tpZIFACgAjJnZASCiCkxYKAB2CAvTJiOLqLEeVqHPCiswBNYqCfAwPAOgQABAAAIAAACAAIAABAAAAAAAAAAAA==

>  <PUBCHEM_IUPAC_OPENEYE_NAME>  (8) 
5-[4-(cyclopropylmethoxy)-5-iodo-2-isopropyl-phenoxy]pyrimidine-2,4-diamine

>  <PUBCHEM_IUPAC_CAS_NAME>  (8) 
5-[4-(cyclopropylmethoxy)-5-iodo-2-propan-2-ylphenoxy]pyrimidine-2,4-diamine

>  <PUBCHEM_IUPAC_NAME_MARKUP>  (8) 
5-[4-(cyclopropylmethoxy)-5-iodo-2-propan-2-ylphenoxy]pyrimidine-2,4-diamine

>  <PUBCHEM_IUPAC_NAME>  (8) 
5-[4-(cyclopropylmethoxy)-5-iodo-2-propan-2-ylphenoxy]pyrimidine-2,4-diamine

>  <PUBCHEM_IUPAC_SYSTEMATIC_NAME>  (8) 
5-[4-(cyclopropylmethoxy)-5-iodanyl-2-propan-2-yl-phenoxy]pyrimidine-2,4-diamine

>  <PUBCHEM_IUPAC_TRADITIONAL_NAME>  (8) 
[2-amino-5-[4-(cyclopropylmethoxy)-5-iodo-2-isopropyl-phenoxy]pyrimidin-4-yl]amine

>  <PUBCHEM_IUPAC_INCHI>  (8) 
InChI=1S/C17H21IN4O2/c1-9(2)11-5-14(23-8-10-3-4-10)12(18)6-13(11)24-15-7-21-17(20)22-16(15)19/h5-7,9-10H,3-4,8H2,1-2H3,(H4,19,20,21,22)

>  <PUBCHEM_IUPAC_INCHIKEY>  (8) 
OOZZEXUFFLIQPD-UHFFFAOYSA-N

>  <PUBCHEM_XLOGP3_AA>  (8) 
3.5

>  <PUBCHEM_EXACT_MASS>  (8) 
440.07092

>  <PUBCHEM_MOLECULAR_FORMULA>  (8) 
C17H21IN4O2

>  <PUBCHEM_MOLECULAR_WEIGHT>  (8) 
440.3

>  <PUBCHEM_CACTVS_TPSA>  (8) 
96.3

>  <PUBCHEM_MONOISOTOPIC_WEIGHT>  (8) 
440.07092

>  <PUBCHEM_TOTAL_CHARGE>  (8) 
0

>  <PUBCHEM_HEAVY_ATOM_COUNT>  (8) 
24

>  <PUBCHEM_ATOM_DEF_STEREO_COUNT>  (8) 
0

>  <PUBCHEM_ATOM_UDEF_STEREO_COUNT>  (8) 
0

>  <PUBCHEM_BOND_DEF_STEREO_COUNT>  (8) 
0

>  <PUBCHEM_BOND_UDEF_STEREO_COUNT>  (8) 
0

>  <PUBCHEM_ISOTOPIC_ATOM_COUNT>  (8) 
0

>  <PUBCHEM_COMPONENT_COUNT>  (8) 
1

>  <PUBCHEM_CACTVS_TAUTO_COUNT>  (8) 
-1

>  <PUBCHEM_COORDINATE_TYPE>  (8) 
1
5
255

>  <PUBCHEM_BONDANNOTATIONS>  (8) 
12  14  8
12  16  8
13  14  8
13  17  8
16  18  8
17  18  8
21  22  8
21  23  8
4  22  8
4  24  8
5  23  8
5  24  8

$$$$
decoy_9
     RDKit          3D

 32 36  0  0  1  0  0  0  0  0999 V2000
    5.2816    0.1090    3.5817 Cl  0  0  0  0  0  0  0  0  0  0  0  0
    0.6829    0.5579   -3.6094 S   0  0  0  0  0  0  0  0  0  0  0  0
    6.3184    0.1309    0.7732 F   0  0  0  0  0  0  0  0  0  0  0  0
    2.1018   -1.8458   -1.9601 O   0  0  0  0  0  0  0  0  0  0  0  0
   -2.8154    3.0495    0.0389 O   0  0  0  0  0  0  0  0  0  0  0  0
    3.4420    2.9211   -2.2422 O   0  0  0  0  0  0  0  0  0  0  0  0
    0.2324   -1.5864   -0.5226 N   0  0  0  0  0  0  0  0  0  0  0  0
    2.1201    1.1671   -1.4143 N   0  0  0  0  0  0  0  0  0  0  0  0
    0.1527   -2.8539    0.2210 C   0  0  0  0  0  0  0  0  0  0  0  0
   -0.8626   -2.7187    1.4157 C   0  0  0  0  0  0  0  0  0  0  0  0
    0.9888    0.3334   -1.8193 C   0  0  1  0  0  0  0  0  0  0  0  0
   -0.6263   -0.4880   -0.3199 C   0  0  0  0  0  0  0  0  0  0  0  0
   -2.1061   -1.8072    1.1804 C   0  0  1  0  0  0  0  0  0  0  0  0
   -0.2464    0.6297   -1.0203 C   0  0  0  0  0  0  0  0  0  0  0  0
   -1.7238   -0.5067    0.5200 C   0  0  0  0  0  0  0  0  0  0  0  0
    1.1943   -1.1209   -1.4726 C   0  0  0  0  0  0  0  0  0  0  0  0
   -0.2717   -3.9797   -0.7395 C   0  0  0  0  0  0  0  0  0  0  0  0
    1.5397   -3.1979    0.8062 C   0  0  0  0  0  0  0  0  0  0  0  0
   -3.2139   -2.5030    0.3800 C   0  0  0  0  0  0  0  0  0  0  0  0
   -0.9669    1.8193   -0.9026 C   0  0  0  0  0  0  0  0  0  0  0  0
   -2.4811    0.6743    0.6438 C   0  0  0  0  0  0  0  0  0  0  0  0
   -2.0994    1.8482   -0.0634 C   0  0  0  0  0  0  0  0  0  0  0  0
    1.7661    2.0225   -3.7000 C   0  0  0  0  0  0  0  0  0  0  0  0
    2.5195    2.0824   -2.4266 C   0  0  0  0  0  0  0  0  0  0  0  0
    2.8838    0.9553   -0.2095 C   0  0  0  0  0  0  0  0  0  0  0  0
    4.2566    0.6706   -0.2894 C   0  0  0  0  0  0  0  0  0  0  0  0
    2.2622    0.9851    1.0499 C   0  0  0  0  0  0  0  0  0  0  0  0
   -3.9760    3.2281    0.8461 C   0  0  0  0  0  0  0  0  0  0  0  0
    4.9950    0.4128    0.8698 C   0  0  0  0  0  0  0  0  0  0  0  0
    3.0007    0.7260    2.2076 C   0  0  0  0  0  0  0  0  0  0  0  0
    4.3662    0.4377    2.1206 C   0  0  0  0  0  0  0  0  0  0  0  0
   -4.4744    4.6576    0.7090 C   0  0  0  0  0  0  0  0  0  0  0  0
  1 31  1  0
 11  2  1  6
  2 23  1  0
  3 29  1  0
  4 16  2  0
  5 22  1  0
  5 28  1  0
  6 24  2  0
  7  9  1  0
  7 12  1  0
  7 16  1  0
 11  8  1  0
  8 24  1  0
  8 25  1  0
  9 10  1  0
  9 17  1  0
  9 18  1  0
 10 13  1  0
 11 14  1  0
 11 16  1  0
 12 14  1  0
 12 15  2  0
 13 15  1  0
 13 19  1  6
 14 20  2  0
 15 21  1  0
 20 22  1  0
 21 22  2  0
 23 24  1  0
 25 26  2  0
 25 27  1  0
 26 29  1  0
 27 30  2  0
 28 32  1  0
 29 31  2  0
 30 31  1  0
M  END
>  <PUBCHEM_COMPOUND_CID>  (9) 
42583265

>  <PUBCHEM_COMPOUND_CANONICALIZED>  (9) 
1

>  <PUBCHEM_CACTVS_COMPLEXITY>  (9) 
799

>  <PUBCHEM_CACTVS_HBOND_ACCEPTOR>  (9) 
5

>  <PUBCHEM_CACTVS_HBOND_DONOR>  (9) 
0

>  <PUBCHEM_CACTVS_ROTATABLE_BOND>  (9) 
3

>  <PUBCHEM_CACTVS_SUBSKEYS>  (9) 
AAADceB7MQBEAAAAAAAAAAAAAAAAAWLAAAA8YIAAAAAAAFixQAAAHwYAAAAADY6l2CqyxoMABAiIAiVSUACCCABhJxAIiAGGbogMZjLl97uWOCjkxBHo6Ae83PLOgEBDAAACAAAAgIYAAAQAAAAAAAAAAA==

>  <PUBCHEM_IUPAC_OPENEYE_NAME>  (9) 
(3S,9S)-3'-(4-chloro-3-fluoro-phenyl)-6-ethoxy-9,11,11-trimethyl-spiro[1-azatricyclo[6.3.1.04,12]dodeca-4,6,8(12)-triene-3,2'-thiazolidine]-2,4'-dione

>  <PUBCHEM_IUPAC_CAS_NAME>  (9) 
(3S,9S)-3'-(4-chloro-3-fluorophenyl)-6-ethoxy-9,11,11-trimethylspiro[1-azatricyclo[6.3.1.04,12]dodeca-4,6,8(12)-triene-3,2'-thiazolidine]-2,4'-dione

>  <PUBCHEM_IUPAC_NAME_MARKUP>  (9) 
(2<I>S</I>,9&apos;<I>S</I>)-3-(4-chloro-3-fluorophenyl)-6&apos;-ethoxy-9&apos;,11&apos;,11&apos;-trimethylspiro[1,3-thiazolidine-2,3&apos;-1-azatricyclo[6.3.1.0<SUP>4,12</SUP>]dodeca-4,6,8(12)-triene]-2&apos;,4-dione

>  <PUBCHEM_IUPAC_NAME>  (9) 
(2S,9'S)-3-(4-chloro-3-fluorophenyl)-6'-ethoxy-9',11',11'-trimethylspiro[1,3-thiazolidine-2,3'-1-azatricyclo[6.3.1.04,12]dodeca-4,6,8(12)-triene]-2',4-dione

>  <PUBCHEM_IUPAC_SYSTEMATIC_NAME>  (9) 
(2S,9'S)-3-(4-chloranyl-3-fluoranyl-phenyl)-6'-ethoxy-9',11',11'-trimethyl-spiro[1,3-thiazolidine-2,3'-1-azatricyclo[6.3.1.04,12]dodeca-4,6,8(12)-triene]-2',4-dione

>  <PUBCHEM_IUPAC_TRADITIONAL_NAME>  (9) 
(3S,9S)-3'-(4-chloro-3-fluoro-phenyl)-6-ethoxy-9,11,11-trimethyl-spiro[1-azatricyclo[6.3.1.04,12]dodeca-4,6,8(12)-triene-3,2'-thiazolidine]-2,4'-quinone

>  <PUBCHEM_IUPAC_INCHI>  (9) 
InChI=1S/C24H24ClFN2O3S/c1-5-31-15-9-16-13(2)11-23(3,4)28-21(16)17(10-15)24(22(28)30)27(20(29)12-32-24)14-6-7-18(25)19(26)8-14/h6-10,13H,5,11-12H2,1-4H3/t13-,24-/m0/s1

>  <PUBCHEM_IUPAC_INCHIKEY>  (9) 
DRQDMXBXMIYYEV-RZFZLAGVSA-N

>  <PUBCHEM_XLOGP3_AA>  (9) 
4.9

>  <PUBCHEM_EXACT_MASS>  (9) 
474.1180197

>  <PUBCHEM_MOLECULAR_FORMULA>  (9) 
C24H24ClFN2O3S

>  <PUBCHEM_MOLECULAR_WEIGHT>  (9) 
475.0

>  <PUBCHEM_CACTVS_TPSA>  (9) 
75.2

>  <PUBCHEM_MONOISOTOPIC_WEIGHT>  (9) 
474.1180197

>  <PUBCHEM_TOTAL_CHARGE>  (9) 
0

>  <PUBCHEM_HEAVY_ATOM_COUNT>  (9) 
32

>  <PUBCHEM_ATOM_DEF_STEREO_COUNT>  (9) 
2

>  <PUBCHEM_ATOM_UDEF_STEREO_COUNT>  (9) 
0

>  <PUBCHEM_BOND_DEF_STEREO_COUNT>  (9) 
0

>  <PUBCHEM_BOND_UDEF_STEREO_COUNT>  (9) 
0

>  <PUBCHEM_ISOTOPIC_ATOM_COUNT>  (9) 
0

>  <PUBCHEM_COMPONENT_COUNT>  (9) 
1

>  <PUBCHEM_CACTVS_TAUTO_COUNT>  (9) 
-1

>  <PUBCHEM_COORDINATE_TYPE>  (9) 
1
5
255

>  <PUBCHEM_BONDANNOTATIONS>  (9) 
12  14  8
12  15  8
13  19  5
14  20  8
15  21  8
20  22  8
21  22  8
25  26  8
25  27  8
26  29  8
27  30  8
29  31  8
30  31  8
11  8  6

$$$$
decoy_10
     RDKit          3D

 26 29  0  0  0  0  0  0  0  0999 V2000
    1.5278   -4.4470    0.1294 S   0  0  0  0  0  0  0  0  0  0  0  0
   -5.1293   -0.9881   -0.2032 O   0  0  0  0  0  0  0  0  0  0  0  0
    3.2119   -0.0150    1.1536 O   0  0  0  0  0  0  0  0  0  0  0  0
   -2.6808   -0.2251    0.5379 N   0  0  0  0  0  0  0  0  0  0  0  0
    1.2899   -1.9523    0.0744 N   0  0  0  0  0  0  0  0  0  0  0  0
   -0.7197   -2.9069   -0.2822 N   0  0  0  0  0  0  0  0  0  0  0  0
    4.9662   -1.2268    0.2175 N   0  0  0  0  0  0  0  0  0  0  0  0
    5.8996   -0.2198    0.5112 N   0  0  0  0  0  0  0  0  0  0  0  0
   -2.1064   -0.8448   -0.6769 C   0  0  0  0  0  0  0  0  0  0  0  0
   -3.2996   -1.2161    1.4424 C   0  0  0  0  0  0  0  0  0  0  0  0
   -3.6242    0.8740    0.2288 C   0  0  0  0  0  0  0  0  0  0  0  0
   -0.8247   -1.5518   -0.3471 C   0  0  0  0  0  0  0  0  0  0  0  0
    0.4191   -0.9497   -0.1284 C   0  0  0  0  0  0  0  0  0  0  0  0
   -4.6498   -1.7401    0.8969 C   0  0  0  0  0  0  0  0  0  0  0  0
   -5.0823    0.3883    0.1013 C   0  0  0  0  0  0  0  0  0  0  0  0
    0.5909   -3.0689   -0.0255 C   0  0  0  0  0  0  0  0  0  0  0  0
    0.7553    0.4716   -0.3205 C   0  0  0  0  0  0  0  0  0  0  0  0
    2.6163   -2.1448    0.3043 C   0  0  0  0  0  0  0  0  0  0  0  0
    2.9422   -3.5114    0.3564 C   0  0  0  0  0  0  0  0  0  0  0  0
    1.6574    0.8505   -1.3251 C   0  0  0  0  0  0  0  0  0  0  0  0
    0.1637    1.4552    0.4843 C   0  0  0  0  0  0  0  0  0  0  0  0
    3.5881   -1.0681    0.5736 C   0  0  0  0  0  0  0  0  0  0  0  0
    1.9667    2.1994   -1.5212 C   0  0  0  0  0  0  0  0  0  0  0  0
    0.4711    2.8044    0.2872 C   0  0  0  0  0  0  0  0  0  0  0  0
    1.3631    3.1861   -0.7267 C   0  0  0  0  0  0  0  0  0  0  0  0
    1.7247    4.6300   -0.9107 C   0  0  0  0  0  0  0  0  0  0  0  0
  1 16  1  0
  1 19  1  0
  2 14  1  0
  2 15  1  0
  3 22  2  0
  4  9  1  0
  4 10  1  0
  4 11  1  0
  5 13  1  0
  5 16  1  0
  5 18  1  0
  6 12  1  0
  6 16  2  0
  7  8  1  0
  7 22  1  0
  9 12  1  0
 10 14  1  0
 11 15  1  0
 12 13  2  0
 13 17  1  0
 17 20  2  0
 17 21  1  0
 18 19  2  0
 18 22  1  0
 20 23  1  0
 21 24  2  0
 23 25  2  0
 24 25  1  0
 25 26  1  0
M  END
>  <PUBCHEM_COMPOUND_CID>  (10) 
165412710

>  <PUBCHEM_COMPOUND_CANONICALIZED>  (10) 
1

>  <PUBCHEM_CACTVS_COMPLEXITY>  (10) 
496

>  <PUBCHEM_CACTVS_HBOND_ACCEPTOR>  (10) 
6

>  <PUBCHEM_CACTVS_HBOND_DONOR>  (10) 
2

>  <PUBCHEM_CACTVS_ROTATABLE_BOND>  (10) 
4

>  <PUBCHEM_CACTVS_SUBSKEYS>  (10) 
AAADceB7sABAAAAAAAAAAAAAAAAAAWLAAAA8QAAAAAAWAAAB8AAAHgQYAAAADAjl3gazkZduHAisAyVydACC8K1nGrobuDW4dNiKaOLg2TGXIAhogALYyKcQgMAOQAAAAAAAAACAAAAAAAAAAAAAAAAAAA==

>  <PUBCHEM_IUPAC_OPENEYE_NAME>  (10) 
6-(morpholinomethyl)-5-(p-tolyl)imidazo[2,1-b]thiazole-3-carbohydrazide

>  <PUBCHEM_IUPAC_CAS_NAME>  (10) 
5-(4-methylphenyl)-6-(4-morpholinylmethyl)-3-imidazo[2,1-b]thiazolecarbohydrazide

>  <PUBCHEM_IUPAC_NAME_MARKUP>  (10) 
5-(4-methylphenyl)-6-(morpholin-4-ylmethyl)imidazo[2,1-b][1,3]thiazole-3-carbohydrazide

>  <PUBCHEM_IUPAC_NAME>  (10) 
5-(4-methylphenyl)-6-(morpholin-4-ylmethyl)imidazo[2,1-b][1,3]thiazole-3-carbohydrazide

>  <PUBCHEM_IUPAC_SYSTEMATIC_NAME>  (10) 
5-(4-methylphenyl)-6-(morpholin-4-ylmethyl)imidazo[2,1-b][1,3]thiazole-3-carbohydrazide

>  <PUBCHEM_IUPAC_TRADITIONAL_NAME>  (10) 
6-(morpholinomethyl)-5-(p-tolyl)imidazo[2,1-b]thiazole-3-carbohydrazide

>  <PUBCHEM_IUPAC_INCHI>  (10) 
InChI=1S/C18H21N5O2S/c1-12-2-4-13(5-3-12)16-14(10-22-6-8-25-9-7-22)20-18-23(16)15(11-26-18)17(24)21-19/h2-5,11H,6-10,19H2,1H3,(H,21,24)

>  <PUBCHEM_IUPAC_INCHIKEY>  (10) 
MSIRVCGEZTUEOG-UHFFFAOYSA-N

>  <PUBCHEM_XLOGP3_AA>  (10) 
2.3

>  <PUBCHEM_EXACT_MASS>  (10) 
371.14159610

>  <PUBCHEM_MOLECULAR_FORMULA>  (10) 
C18H21N5O2S

>  <PUBCHEM_MOLECULAR_WEIGHT>  (10) 
371.5

>  <PUBCHEM_CACTVS_TPSA>  (10) 
113

>  <PUBCHEM_MONOISOTOPIC_WEIGHT>  (10) 
371.14159610

>  <PUBCHEM_TOTAL_CHARGE>  (10) 
0

>  <PUBCHEM_HEAVY_ATOM_COUNT>  (10) 
26

>  <PUBCHEM_ATOM_DEF_STEREO_COUNT>  (10) 
0

>  <PUBCHEM_ATOM_UDEF_STEREO_COUNT>  (10) 
0

>  <PUBCHEM_BOND_DEF_STEREO_COUNT>  (10) 
0

>  <PUBCHEM_BOND_UDEF_STEREO_COUNT>  (10) 
0

>  <PUBCHEM_ISOTOPIC_ATOM_COUNT>  (10) 
0

>  <PUBCHEM_COMPONENT_COUNT>  (10) 
1

>  <PUBCHEM_CACTVS_TAUTO_COUNT>  (10) 
-1

>  <PUBCHEM_COORDINATE_TYPE>  (10) 
1
5
255

>  <PUBCHEM_BONDANNOTATIONS>  (10) 
1  16  8
1  19  8
12  13  8
17  20  8
17  21  8
18  19  8
20  23  8
21  24  8
23  25  8
24  25  8
5  13  8
5  16  8
5  18  8
6  12  8
6  16  8

$$$$
decoy_11
     RDKit          3D

 32 36  0  0  1  0  0  0  0  0999 V2000
    4.1587   -2.2635    3.9911 Cl  0  0  0  0  0  0  0  0  0  0  0  0
    1.6030    1.6337   -3.1779 S   0  0  0  0  0  0  0  0  0  0  0  0
    1.4789   -1.0034    3.5559 F   0  0  0  0  0  0  0  0  0  0  0  0
    2.2892   -1.4497   -2.2588 O   0  0  0  0  0  0  0  0  0  0  0  0
   -2.1420    3.3086    0.8200 O   0  0  0  0  0  0  0  0  0  0  0  0
    4.2018    2.7219   -0.5081 O   0  0  0  0  0  0  0  0  0  0  0  0
    0.0757   -1.2961   -1.4169 N   0  0  0  0  0  0  0  0  0  0  0  0
    2.5037    1.1119   -0.6936 N   0  0  0  0  0  0  0  0  0  0  0  0
   -0.2843   -2.6778   -1.0732 C   0  0  0  0  0  0  0  0  0  0  0  0
   -1.8335   -2.7532   -0.9209 C   0  0  0  0  0  0  0  0  0  0  0  0
    1.4148    0.7353   -1.5956 C   0  0  1  0  0  0  0  0  0  0  0  0
   -0.6346   -0.1904   -0.8980 C   0  0  0  0  0  0  0  0  0  0  0  0
   -2.4390   -1.6743    0.0274 C   0  0  1  0  0  0  0  0  0  0  0  0
    0.0668    0.9885   -0.9922 C   0  0  0  0  0  0  0  0  0  0  0  0
   -1.8399   -0.2937   -0.2104 C   0  0  0  0  0  0  0  0  0  0  0  0
    1.3390   -0.7534   -1.8132 C   0  0  0  0  0  0  0  0  0  0  0  0
    0.1467   -3.6391   -2.1983 C   0  0  0  0  0  0  0  0  0  0  0  0
    0.4115   -3.0790    0.2417 C   0  0  0  0  0  0  0  0  0  0  0  0
   -3.9683   -1.6658   -0.1268 C   0  0  0  0  0  0  0  0  0  0  0  0
   -0.4347    2.1634   -0.4341 C   0  0  0  0  0  0  0  0  0  0  0  0
   -2.3497    0.8828    0.3842 C   0  0  0  0  0  0  0  0  0  0  0  0
   -1.6591    2.1185    0.2565 C   0  0  0  0  0  0  0  0  0  0  0  0
    2.8501    2.7703   -2.4857 C   0  0  0  0  0  0  0  0  0  0  0  0
    3.2582    2.2174   -1.1742 C   0  0  0  0  0  0  0  0  0  0  0  0
    2.9034    0.3366    0.4549 C   0  0  0  0  0  0  0  0  0  0  0  0
    1.9918    0.0560    1.4863 C   0  0  0  0  0  0  0  0  0  0  0  0
    4.2054   -0.1837    0.5316 C   0  0  0  0  0  0  0  0  0  0  0  0
   -3.3592    3.4177    1.5530 C   0  0  0  0  0  0  0  0  0  0  0  0
    2.3737   -0.7389    2.5713 C   0  0  0  0  0  0  0  0  0  0  0  0
    4.5867   -0.9773    1.6171 C   0  0  0  0  0  0  0  0  0  0  0  0
    3.6719   -1.2588    2.6367 C   0  0  0  0  0  0  0  0  0  0  0  0
   -3.5601    4.8595    1.9909 C   0  0  0  0  0  0  0  0  0  0  0  0
  1 31  1  0
 11  2  1  6
  2 23  1  0
  3 29  1  0
  4 16  2  0
  5 22  1  0
  5 28  1  0
  6 24  2  0
  7  9  1  0
  7 12  1  0
  7 16  1  0
 11  8  1  0
  8 24  1  0
  8 25  1  0
  9 10  1  0
  9 17  1  0
  9 18  1  0
 10 13  1  0
 11 14  1  0
 11 16  1  0
 12 14  1  0
 12 15  2  0
 13 15  1  0
 13 19  1  6
 14 20  2  0
 15 21  1  0
 20 22  1  0
 21 22  2  0
 23 24  1  0
 25 26  2  0
 25 27  1  0
 26 29  1  0
 27 30  2  0
 28 32  1  0
 29 31  2  0
 30 31  1  0
M  END
>  <PUBCHEM_COMPOUND_CID>  (11) 
42583265

>  <PUBCHEM_COMPOUND_CANONICALIZED>  (11) 
1

>  <PUBCHEM_CACTVS_COMPLEXITY>  (11) 
799

>  <PUBCHEM_CACTVS_HBOND_ACCEPTOR>  (11) 
5

>  <PUBCHEM_CACTVS_HBOND_DONOR>  (11) 
0

>  <PUBCHEM_CACTVS_ROTATABLE_BOND>  (11) 
3

>  <PUBCHEM_CACTVS_SUBSKEYS>  (11) 
AAADceB7MQBEAAAAAAAAAAAAAAAAAWLAAAA8YIAAAAAAAFixQAAAHwYAAAAADY6l2CqyxoMABAiIAiVSUACCCABhJxAIiAGGbogMZjLl97uWOCjkxBHo6Ae83PLOgEBDAAACAAAAgIYAAAQAAAAAAAAAAA==

>  <PUBCHEM_IUPAC_OPENEYE_NAME>  (11) 
(3S,9S)-3'-(4-chloro-3-fluoro-phenyl)-6-ethoxy-9,11,11-trimethyl-spiro[1-azatricyclo[6.3.1.04,12]dodeca-4,6,8(12)-triene-3,2'-thiazolidine]-2,4'-dione

>  <PUBCHEM_IUPAC_CAS_NAME>  (11) 
(3S,9S)-3'-(4-chloro-3-fluorophenyl)-6-ethoxy-9,11,11-trimethylspiro[1-azatricyclo[6.3.1.04,12]dodeca-4,6,8(12)-triene-3,2'-thiazolidine]-2,4'-dione

>  <PUBCHEM_IUPAC_NAME_MARKUP>  (11) 
(2<I>S</I>,9&apos;<I>S</I>)-3-(4-chloro-3-fluorophenyl)-6&apos;-ethoxy-9&apos;,11&apos;,11&apos;-trimethylspiro[1,3-thiazolidine-2,3&apos;-1-azatricyclo[6.3.1.0<SUP>4,12</SUP>]dodeca-4,6,8(12)-triene]-2&apos;,4-dione

>  <PUBCHEM_IUPAC_NAME>  (11) 
(2S,9'S)-3-(4-chloro-3-fluorophenyl)-6'-ethoxy-9',11',11'-trimethylspiro[1,3-thiazolidine-2,3'-1-azatricyclo[6.3.1.04,12]dodeca-4,6,8(12)-triene]-2',4-dione

>  <PUBCHEM_IUPAC_SYSTEMATIC_NAME>  (11) 
(2S,9'S)-3-(4-chloranyl-3-fluoranyl-phenyl)-6'-ethoxy-9',11',11'-trimethyl-spiro[1,3-thiazolidine-2,3'-1-azatricyclo[6.3.1.04,12]dodeca-4,6,8(12)-triene]-2',4-dione

>  <PUBCHEM_IUPAC_TRADITIONAL_NAME>  (11) 
(3S,9S)-3'-(4-chloro-3-fluoro-phenyl)-6-ethoxy-9,11,11-trimethyl-spiro[1-azatricyclo[6.3.1.04,12]dodeca-4,6,8(12)-triene-3,2'-thiazolidine]-2,4'-quinone

>  <PUBCHEM_IUPAC_INCHI>  (11) 
InChI=1S/C24H24ClFN2O3S/c1-5-31-15-9-16-13(2)11-23(3,4)28-21(16)17(10-15)24(22(28)30)27(20(29)12-32-24)14-6-7-18(25)19(26)8-14/h6-10,13H,5,11-12H2,1-4H3/t13-,24-/m0/s1

>  <PUBCHEM_IUPAC_INCHIKEY>  (11) 
DRQDMXBXMIYYEV-RZFZLAGVSA-N

>  <PUBCHEM_XLOGP3_AA>  (11) 
4.9

>  <PUBCHEM_EXACT_MASS>  (11) 
474.1180197

>  <PUBCHEM_MOLECULAR_FORMULA>  (11) 
C24H24ClFN2O3S

>  <PUBCHEM_MOLECULAR_WEIGHT>  (11) 
475.0

>  <PUBCHEM_CACTVS_TPSA>  (11) 
75.2

>  <PUBCHEM_MONOISOTOPIC_WEIGHT>  (11) 
474.1180197

>  <PUBCHEM_TOTAL_CHARGE>  (11) 
0

>  <PUBCHEM_HEAVY_ATOM_COUNT>  (11) 
32

>  <PUBCHEM_ATOM_DEF_STEREO_COUNT>  (11) 
2

>  <PUBCHEM_ATOM_UDEF_STEREO_COUNT>  (11) 
0

>  <PUBCHEM_BOND_DEF_STEREO_COUNT>  (11) 
0

>  <PUBCHEM_BOND_UDEF_STEREO_COUNT>  (11) 
0

>  <PUBCHEM_ISOTOPIC_ATOM_COUNT>  (11) 
0

>  <PUBCHEM_COMPONENT_COUNT>  (11) 
1

>  <PUBCHEM_CACTVS_TAUTO_COUNT>  (11) 
-1

>  <PUBCHEM_COORDINATE_TYPE>  (11) 
1
5
255

>  <PUBCHEM_BONDANNOTATIONS>  (11) 
12  14  8
12  15  8
13  19  5
14  20  8
15  21  8
20  22  8
21  22  8
25  26  8
25  27  8
26  29  8
27  30  8
29  31  8
30  31  8
11  8  6

$$$$
decoy_12
     RDKit          3D

 23 24  0  0  0  0  0  0  0  0999 V2000
   -3.2533    1.7518   -1.4846 O   0  0  0  0  0  0  0  0  0  0  0  0
   -1.3385    2.6310   -0.1802 O   0  0  0  0  0  0  0  0  0  0  0  0
   -2.5248   -2.0875    0.2624 O   0  0  0  0  0  0  0  0  0  0  0  0
    4.3783   -0.6868   -1.4709 N   0  0  0  0  0  0  0  0  0  0  0  0
    4.7778    1.2886   -0.2638 N   0  0  0  0  0  0  0  0  0  0  0  0
    2.7369   -2.3131   -0.8243 N   0  0  0  0  0  0  0  0  0  0  0  0
    6.0622    0.8498   -2.2557 N   0  0  0  0  0  0  0  0  0  0  0  0
   -3.2901    0.5299   -0.7802 C   0  0  0  0  0  0  0  0  0  0  0  0
   -1.9041    0.2441   -0.1462 C   0  0  0  0  0  0  0  0  0  0  0  0
   -0.9743    1.3001    0.0919 C   0  0  0  0  0  0  0  0  0  0  0  0
   -1.5661   -1.0623    0.3133 C   0  0  0  0  0  0  0  0  0  0  0  0
    0.6584   -0.2948    0.9585 C   0  0  0  0  0  0  0  0  0  0  0  0
   -4.3367    0.6237    0.3486 C   0  0  0  0  0  0  0  0  0  0  0  0
   -3.6997   -0.5601   -1.8035 C   0  0  0  0  0  0  0  0  0  0  0  0
    0.2977    1.0092    0.6176 C   0  0  0  0  0  0  0  0  0  0  0  0
   -0.2844   -1.3154    0.8353 C   0  0  0  0  0  0  0  0  0  0  0  0
    2.0316   -0.5803    1.5177 C   0  0  0  0  0  0  0  0  0  0  0  0
    3.1111   -0.2466    0.5126 C   0  0  0  0  0  0  0  0  0  0  0  0
    3.4142   -1.0734   -0.5933 C   0  0  0  0  0  0  0  0  0  0  0  0
    3.8259    0.9537    0.6430 C   0  0  0  0  0  0  0  0  0  0  0  0
   -0.5049    3.7691    0.0179 C   0  0  0  0  0  0  0  0  0  0  0  0
   -2.3168   -3.4311    0.6867 C   0  0  0  0  0  0  0  0  0  0  0  0
    5.0578    0.4779   -1.3148 C   0  0  0  0  0  0  0  0  0  0  0  0
  1  8  1  0
  2 10  1  0
  2 21  1  0
  3 11  1  0
  3 22  1  0
  4 19  2  0
  4 23  1  0
  5 20  1  0
  5 23  2  0
  6 19  1  0
  7 23  1  0
  8  9  1  0
  8 13  1  0
  8 14  1  0
  9 10  2  0
  9 11  1  0
 10 15  1  0
 11 16  2  0
 12 15  2  0
 12 16  1  0
 12 17  1  0
 17 18  1  0
 18 19  1  0
 18 20  2  0
M  END
>  <PUBCHEM_COMPOUND_CID>  (12) 
41526

>  <PUBCHEM_COMPOUND_CANONICALIZED>  (12) 
1

>  <PUBCHEM_CACTVS_COMPLEXITY>  (12) 
368

>  <PUBCHEM_CACTVS_HBOND_ACCEPTOR>  (12) 
7

>  <PUBCHEM_CACTVS_HBOND_DONOR>  (12) 
3

>  <PUBCHEM_CACTVS_ROTATABLE_BOND>  (12) 
5

>  <PUBCHEM_CACTVS_SUBSKEYS>  (12) 
AAADceB7sAAAAAAAAAAAAAAAAAAAAAAAAAA8QAAAAAAAAAABwAAAHgAQCAAADETBmgY/tpZIFgCgAjJnZACCiCkxIKAB2CAuTJiML6LE+VqEdCgtwBdI+CeQ4PwOwAABCAAIAACAAAIQABAAAAAAAAAAAA==

>  <PUBCHEM_IUPAC_OPENEYE_NAME>  (12) 
2-[4-[(2,4-diaminopyrimidin-5-yl)methyl]-2,6-dimethoxy-phenyl]propan-2-ol

>  <PUBCHEM_IUPAC_CAS_NAME>  (12) 
2-[4-[(2,4-diamino-5-pyrimidinyl)methyl]-2,6-dimethoxyphenyl]-2-propanol

>  <PUBCHEM_IUPAC_NAME_MARKUP>  (12) 
2-[4-[(2,4-diaminopyrimidin-5-yl)methyl]-2,6-dimethoxyphenyl]propan-2-ol

>  <PUBCHEM_IUPAC_NAME>  (12) 
2-[4-[(2,4-diaminopyrimidin-5-yl)methyl]-2,6-dimethoxyphenyl]propan-2-ol

>  <PUBCHEM_IUPAC_SYSTEMATIC_NAME>  (12) 
2-[4-[[2,4-bis(azanyl)pyrimidin-5-yl]methyl]-2,6-dimethoxy-phenyl]propan-2-ol

>  <PUBCHEM_IUPAC_TRADITIONAL_NAME>  (12) 
2-[4-[(2,4-diaminopyrimidin-5-yl)methyl]-2,6-dimethoxy-phenyl]propan-2-ol

>  <PUBCHEM_IUPAC_INCHI>  (12) 
InChI=1S/C16H22N4O3/c1-16(2,21)13-11(22-3)6-9(7-12(13)23-4)5-10-8-19-15(18)20-14(10)17/h6-8,21H,5H2,1-4H3,(H4,17,18,19,20)

>  <PUBCHEM_IUPAC_INCHIKEY>  (12) 
ZEHBWBDRLQCJBQ-UHFFFAOYSA-N

>  <PUBCHEM_XLOGP3>  (12) 
1.5

>  <PUBCHEM_EXACT_MASS>  (12) 
318.16919058

>  <PUBCHEM_MOLECULAR_FORMULA>  (12) 
C16H22N4O3

>  <PUBCHEM_MOLECULAR_WEIGHT>  (12) 
318.37

>  <PUBCHEM_CACTVS_TPSA>  (12) 
117

>  <PUBCHEM_MONOISOTOPIC_WEIGHT>  (12) 
318.16919058

>  <PUBCHEM_TOTAL_CHARGE>  (12) 
0

>  <PUBCHEM_HEAVY_ATOM_COUNT>  (12) 
23

>  <PUBCHEM_ATOM_DEF_STEREO_COUNT>  (12) 
0

>  <PUBCHEM_ATOM_UDEF_STEREO_COUNT>  (12) 
0

>  <PUBCHEM_BOND_DEF_STEREO_COUNT>  (12) 
0

>  <PUBCHEM_BOND_UDEF_STEREO_COUNT>  (12) 
0

>  <PUBCHEM_ISOTOPIC_ATOM_COUNT>  (12) 
0

>  <PUBCHEM_COMPONENT_COUNT>  (12) 
1

>  <PUBCHEM_CACTVS_TAUTO_COUNT>  (12) 
-1

>  <PUBCHEM_COORDINATE_TYPE>  (12) 
1
5
255

>  <PUBCHEM_BONDANNOTATIONS>  (12) 
10  15  8
11  16  8
12  15  8
12  16  8
18  19  8
18  20  8
4  19  8
4  23  8
5  20  8
5  23  8
9  10  8
9  11  8

$$$$
decoy_13
     RDKit          3D

 23 24  0  0  0  0  0  0  0  0999 V2000
   -3.6364   -0.3258    1.4203 O   0  0  0  0  0  0  0  0  0  0  0  0
   -1.9037    1.3968    1.8348 O   0  0  0  0  0  0  0  0  0  0  0  0
   -1.9529   -0.9097   -2.4716 O   0  0  0  0  0  0  0  0  0  0  0  0
    4.3391   -1.0309    1.1357 N   0  0  0  0  0  0  0  0  0  0  0  0
    4.3431    1.0873    2.1517 N   0  0  0  0  0  0  0  0  0  0  0  0
    3.1518   -1.5137   -0.8927 N   0  0  0  0  0  0  0  0  0  0  0  0
    5.5806   -0.7089    3.1772 N   0  0  0  0  0  0  0  0  0  0  0  0
   -3.3535   -0.4096    0.0406 C   0  0  0  0  0  0  0  0  0  0  0  0
   -1.9056    0.0745   -0.2317 C   0  0  0  0  0  0  0  0  0  0  0  0
   -1.2302    0.9253    0.6936 C   0  0  0  0  0  0  0  0  0  0  0  0
   -1.2527   -0.2294   -1.4619 C   0  0  0  0  0  0  0  0  0  0  0  0
    0.7697    0.9077   -0.7066 C   0  0  0  0  0  0  0  0  0  0  0  0
   -4.3292    0.4980   -0.7358 C   0  0  0  0  0  0  0  0  0  0  0  0
   -3.5594   -1.8914   -0.3653 C   0  0  0  0  0  0  0  0  0  0  0  0
    0.1019    1.3072    0.4515 C   0  0  0  0  0  0  0  0  0  0  0  0
    0.0799    0.1709   -1.6695 C   0  0  0  0  0  0  0  0  0  0  0  0
    2.2008    1.3286   -0.9404 C   0  0  0  0  0  0  0  0  0  0  0  0
    3.1176    0.7605    0.1197 C   0  0  0  0  0  0  0  0  0  0  0  0
    3.5395   -0.5888    0.1286 C   0  0  0  0  0  0  0  0  0  0  0  0
    3.5451    1.5831    1.1729 C   0  0  0  0  0  0  0  0  0  0  0  0
   -1.3427    2.2514    2.8269 C   0  0  0  0  0  0  0  0  0  0  0  0
   -1.4199   -1.2737   -3.7413 C   0  0  0  0  0  0  0  0  0  0  0  0
    4.7419   -0.2093    2.1383 C   0  0  0  0  0  0  0  0  0  0  0  0
  1  8  1  0
  2 10  1  0
  2 21  1  0
  3 11  1  0
  3 22  1  0
  4 19  2  0
  4 23  1  0
  5 20  1  0
  5 23  2  0
  6 19  1  0
  7 23  1  0
  8  9  1  0
  8 13  1  0
  8 14  1  0
  9 10  2  0
  9 11  1  0
 10 15  1  0
 11 16  2  0
 12 15  2  0
 12 16  1  0
 12 17  1  0
 17 18  1  0
 18 19  1  0
 18 20  2  0
M  END
>  <PUBCHEM_COMPOUND_CID>  (13) 
41526

>  <PUBCHEM_COMPOUND_CANONICALIZED>  (13) 
1

>  <PUBCHEM_CACTVS_COMPLEXITY>  (13) 
368

>  <PUBCHEM_CACTVS_HBOND_ACCEPTOR>  (13) 
7

>  <PUBCHEM_CACTVS_HBOND_DONOR>  (13) 
3

>  <PUBCHEM_CACTVS_ROTATABLE_BOND>  (13) 
5

>  <PUBCHEM_CACTVS_SUBSKEYS>  (13) 
AAADceB7sAAAAAAAAAAAAAAAAAAAAAAAAAA8QAAAAAAAAAABwAAAHgAQCAAADETBmgY/tpZIFgCgAjJnZACCiCkxIKAB2CAuTJiML6LE+VqEdCgtwBdI+CeQ4PwOwAABCAAIAACAAAIQABAAAAAAAAAAAA==

>  <PUBCHEM_IUPAC_OPENEYE_NAME>  (13) 
2-[4-[(2,4-diaminopyrimidin-5-yl)methyl]-2,6-dimethoxy-phenyl]propan-2-ol

>  <PUBCHEM_IUPAC_CAS_NAME>  (13) 
2-[4-[(2,4-diamino-5-pyrimidinyl)methyl]-2,6-dimethoxyphenyl]-2-propanol

>  <PUBCHEM_IUPAC_NAME_MARKUP>  (13) 
2-[4-[(2,4-diaminopyrimidin-5-yl)methyl]-2,6-dimethoxyphenyl]propan-2-ol

>  <PUBCHEM_IUPAC_NAME>  (13) 
2-[4-[(2,4-diaminopyrimidin-5-yl)methyl]-2,6-dimethoxyphenyl]propan-2-ol

>  <PUBCHEM_IUPAC_SYSTEMATIC_NAME>  (13) 
2-[4-[[2,4-bis(azanyl)pyrimidin-5-yl]methyl]-2,6-dimethoxy-phenyl]propan-2-ol

>  <PUBCHEM_IUPAC_TRADITIONAL_NAME>  (13) 
2-[4-[(2,4-diaminopyrimidin-5-yl)methyl]-2,6-dimethoxy-phenyl]propan-2-ol

>  <PUBCHEM_IUPAC_INCHI>  (13) 
InChI=1S/C16H22N4O3/c1-16(2,21)13-11(22-3)6-9(7-12(13)23-4)5-10-8-19-15(18)20-14(10)17/h6-8,21H,5H2,1-4H3,(H4,17,18,19,20)

>  <PUBCHEM_IUPAC_INCHIKEY>  (13) 
ZEHBWBDRLQCJBQ-UHFFFAOYSA-N

>  <PUBCHEM_XLOGP3>  (13) 
1.5

>  <PUBCHEM_EXACT_MASS>  (13) 
318.16919058

>  <PUBCHEM_MOLECULAR_FORMULA>  (13) 
C16H22N4O3

>  <PUBCHEM_MOLECULAR_WEIGHT>  (13) 
318.37

>  <PUBCHEM_CACTVS_TPSA>  (13) 
117

>  <PUBCHEM_MONOISOTOPIC_WEIGHT>  (13) 
318.16919058

>  <PUBCHEM_TOTAL_CHARGE>  (13) 
0

>  <PUBCHEM_HEAVY_ATOM_COUNT>  (13) 
23

>  <PUBCHEM_ATOM_DEF_STEREO_COUNT>  (13) 
0

>  <PUBCHEM_ATOM_UDEF_STEREO_COUNT>  (13) 
0

>  <PUBCHEM_BOND_DEF_STEREO_COUNT>  (13) 
0

>  <PUBCHEM_BOND_UDEF_STEREO_COUNT>  (13) 
0

>  <PUBCHEM_ISOTOPIC_ATOM_COUNT>  (13) 
0

>  <PUBCHEM_COMPONENT_COUNT>  (13) 
1

>  <PUBCHEM_CACTVS_TAUTO_COUNT>  (13) 
-1

>  <PUBCHEM_COORDINATE_TYPE>  (13) 
1
5
255

>  <PUBCHEM_BONDANNOTATIONS>  (13) 
10  15  8
11  16  8
12  15  8
12  16  8
18  19  8
18  20  8
4  19  8
4  23  8
5  20  8
5  23  8
9  10  8
9  11  8

$$$$
decoy_14
     RDKit          3D

 24 26  0  0  0  0  0  0  0  0999 V2000
   -1.5332    3.2097    1.4684 I   0  0  0  0  0  0  0  0  0  0  0  0
   -3.1007    0.9771   -0.2153 O   0  0  0  0  0  0  0  0  0  0  0  0
    2.2154   -0.6862    0.5982 O   0  0  0  0  0  0  0  0  0  0  0  0
    4.6471    2.0861    0.6016 N   0  0  0  0  0  0  0  0  0  0  0  0
    5.0130    0.7216    2.4826 N   0  0  0  0  0  0  0  0  0  0  0  0
    2.9911    1.5762   -1.0663 N   0  0  0  0  0  0  0  0  0  0  0  0
    6.3883    2.6767    2.1627 N   0  0  0  0  0  0  0  0  0  0  0  0
   -5.3954    1.0777   -0.9248 C   0  0  0  0  0  0  0  0  0  0  0  0
   -6.2898    0.9191    0.2949 C   0  0  0  0  0  0  0  0  0  0  0  0
   -6.6857    0.2796   -1.0280 C   0  0  0  0  0  0  0  0  0  0  0  0
   -4.1110    0.2479   -0.9054 C   0  0  0  0  0  0  0  0  0  0  0  0
   -1.7822    0.5343   -0.0265 C   0  0  0  0  0  0  0  0  0  0  0  0
    0.0017   -1.1201   -0.3267 C   0  0  0  0  0  0  0  0  0  0  0  0
   -1.3270   -0.6990   -0.5273 C   0  0  0  0  0  0  0  0  0  0  0  0
    0.4404   -2.4612   -0.9026 C   0  0  0  0  0  0  0  0  0  0  0  0
   -0.8970    1.3507    0.6853 C   0  0  0  0  0  0  0  0  0  0  0  0
    0.8884   -0.2791    0.3861 C   0  0  0  0  0  0  0  0  0  0  0  0
    0.4219    0.9469    0.8933 C   0  0  0  0  0  0  0  0  0  0  0  0
    0.8647   -3.4445    0.1957 C   0  0  0  0  0  0  0  0  0  0  0  0
    1.5342   -2.2950   -1.9656 C   0  0  0  0  0  0  0  0  0  0  0  0
    3.2683    0.1664    0.9520 C   0  0  0  0  0  0  0  0  0  0  0  0
    3.6317    1.2865    0.1790 C   0  0  0  0  0  0  0  0  0  0  0  0
    4.0068   -0.1072    2.1041 C   0  0  0  0  0  0  0  0  0  0  0  0
    5.3303    1.8174    1.7451 C   0  0  0  0  0  0  0  0  0  0  0  0
  1 16  1  0
  2 11  1  0
  2 12  1  0
  3 17  1  0
  3 21  1  0
  4 22  2  0
  4 24  1  0
  5 23  1  0
  5 24  2  0
  6 22  1  0
  7 24  1  0
  8  9  1  0
  8 10  1  0
  8 11  1  0
  9 10  1  0
 12 14  1  0
 12 16  2  0
 13 14  2  0
 13 15  1  0
 13 17  1  0
 15 19  1  0
 15 20  1  0
 16 18  1  0
 17 18  2  0
 21 22  1  0
 21 23  2  0
M  END
>  <PUBCHEM_COMPOUND_CID>  (14) 
171038101

>  <PUBCHEM_COMPOUND_CANONICALIZED>  (14) 
1

>  <PUBCHEM_CACTVS_COMPLEXITY>  (14) 
410

>  <PUBCHEM_CACTVS_HBOND_ACCEPTOR>  (14) 
6

>  <PUBCHEM_CACTVS_HBOND_DONOR>  (14) 
2

>  <PUBCHEM_CACTVS_ROTATABLE_BOND>  (14) 
6

>  <PUBCHEM_CACTVS_SUBSKEYS>  (14) 
AAADceB7sAAAAgAAAAAAAAAAGAAAAAAAAAA8QAAAAAAAAAABwAAAHgAwAAAADQTjmgY/tpZIFACgAjJnZASCiCkxYKAB2CAvTJiOLqLEeVqHPCiswBNYqCfAwPAOgQABAAAIAAACAAIAABAAAAAAAAAAAA==

>  <PUBCHEM_IUPAC_OPENEYE_NAME>  (14) 
5-[4-(cyclopropylmethoxy)-5-iodo-2-isopropyl-phenoxy]pyrimidine-2,4-diamine

>  <PUBCHEM_IUPAC_CAS_NAME>  (14) 
5-[4-(cyclopropylmethoxy)-5-iodo-2-propan-2-ylphenoxy]pyrimidine-2,4-diamine

>  <PUBCHEM_IUPAC_NAME_MARKUP>  (14) 
5-[4-(cyclopropylmethoxy)-5-iodo-2-propan-2-ylphenoxy]pyrimidine-2,4-diamine

>  <PUBCHEM_IUPAC_NAME>  (14) 
5-[4-(cyclopropylmethoxy)-5-iodo-2-propan-2-ylphenoxy]pyrimidine-2,4-diamine

>  <PUBCHEM_IUPAC_SYSTEMATIC_NAME>  (14) 
5-[4-(cyclopropylmethoxy)-5-iodanyl-2-propan-2-yl-phenoxy]pyrimidine-2,4-diamine

>  <PUBCHEM_IUPAC_TRADITIONAL_NAME>  (14) 
[2-amino-5-[4-(cyclopropylmethoxy)-5-iodo-2-isopropyl-phenoxy]pyrimidin-4-yl]amine

>  <PUBCHEM_IUPAC_INCHI>  (14) 
InChI=1S/C17H21IN4O2/c1-9(2)11-5-14(23-8-10-3-4-10)12(18)6-13(11)24-15-7-21-17(20)22-16(15)19/h5-7,9-10H,3-4,8H2,1-2H3,(H4,19,20,21,22)

>  <PUBCHEM_IUPAC_INCHIKEY>  (14) 
OOZZEXUFFLIQPD-UHFFFAOYSA-N

>  <PUBCHEM_XLOGP3_AA>  (14) 
3.5

>  <PUBCHEM_EXACT_MASS>  (14) 
440.07092

>  <PUBCHEM_MOLECULAR_FORMULA>  (14) 
C17H21IN4O2

>  <PUBCHEM_MOLECULAR_WEIGHT>  (14) 
440.3

>  <PUBCHEM_CACTVS_TPSA>  (14) 
96.3

>  <PUBCHEM_MONOISOTOPIC_WEIGHT>  (14) 
440.07092

>  <PUBCHEM_TOTAL_CHARGE>  (14) 
0

>  <PUBCHEM_HEAVY_ATOM_COUNT>  (14) 
24

>  <PUBCHEM_ATOM_DEF_STEREO_COUNT>  (14) 
0

>  <PUBCHEM_ATOM_UDEF_STEREO_COUNT>  (14) 
0

>  <PUBCHEM_BOND_DEF_STEREO_COUNT>  (14) 
0

>  <PUBCHEM_BOND_UDEF_STEREO_COUNT>  (14) 
0

>  <PUBCHEM_ISOTOPIC_ATOM_COUNT>  (14) 
0

>  <PUBCHEM_COMPONENT_COUNT>  (14) 
1

>  <PUBCHEM_CACTVS_TAUTO_COUNT>  (14) 
-1

>  <PUBCHEM_COORDINATE_TYPE>  (14) 
1
5
255

>  <PUBCHEM_BONDANNOTATIONS>  (14) 
12  14  8
12  16  8
13  14  8
13  17  8
16  18  8
17  18  8
21  22  8
21  23  8
4  22  8
4  24  8
5  23  8
5  24  8

$$$$
decoy_15
     RDKit          3D

 26 28  0  0  0  0  0  0  0  0999 V2000
   -6.9914    1.1255   -3.4584 Cl  0  0  0  0  0  0  0  0  0  0  0  0
    4.4851   -1.9006    1.0135 O   0  0  0  0  0  0  0  0  0  0  0  0
    2.0187   -2.8443    1.6344 O   0  0  0  0  0  0  0  0  0  0  0  0
    4.7580    1.9369   -1.9220 O   0  0  0  0  0  0  0  0  0  0  0  0
   -2.1227    1.4095    1.0113 O   0  0  0  0  0  0  0  0  0  0  0  0
   -2.7245   -0.8244    1.3220 N   0  0  0  0  0  0  0  0  0  0  0  0
    2.4254   -0.7085    0.4284 C   0  0  0  0  0  0  0  0  0  0  0  0
    1.8270    0.4406   -0.1592 C   0  0  0  0  0  0  0  0  0  0  0  0
   -0.3271   -0.1275    0.8315 C   0  0  0  0  0  0  0  0  0  0  0  0
    0.4676    0.7176    0.0483 C   0  0  0  0  0  0  0  0  0  0  0  0
    1.5891   -1.6045    1.1551 C   0  0  0  0  0  0  0  0  0  0  0  0
    3.8312   -0.8820    0.3013 C   0  0  0  0  0  0  0  0  0  0  0  0
    2.5908    1.3175   -0.9421 C   0  0  0  0  0  0  0  0  0  0  0  0
    0.2485   -1.2777    1.3861 C   0  0  0  0  0  0  0  0  0  0  0  0
    3.9603    1.0942   -1.1324 C   0  0  0  0  0  0  0  0  0  0  0  0
    4.5679    0.0073   -0.5064 C   0  0  0  0  0  0  0  0  0  0  0  0
   -1.7542    0.2038    1.0616 C   0  0  0  0  0  0  0  0  0  0  0  0
   -4.1211   -0.5202    1.6258 C   0  0  0  0  0  0  0  0  0  0  0  0
   -4.8492   -0.1095    0.3750 C   0  0  0  0  0  0  0  0  0  0  0  0
   -5.1158   -1.0582   -0.6256 C   0  0  0  0  0  0  0  0  0  0  0  0
   -5.2435    1.2249    0.1814 C   0  0  0  0  0  0  0  0  0  0  0  0
   -5.7739   -0.6788   -1.7995 C   0  0  0  0  0  0  0  0  0  0  0  0
   -5.9013    1.6015   -0.9937 C   0  0  0  0  0  0  0  0  0  0  0  0
    5.8852   -2.1603    0.9761 C   0  0  0  0  0  0  0  0  0  0  0  0
   -6.1675    0.6506   -1.9845 C   0  0  0  0  0  0  0  0  0  0  0  0
    4.2784    3.0834   -2.6172 C   0  0  0  0  0  0  0  0  0  0  0  0
  1 25  1  0
  2 12  1  0
  2 24  1  0
  3 11  1  0
  4 15  1  0
  4 26  1  0
  5 17  2  0
  6 17  1  0
  6 18  1  0
  7  8  1  0
  7 11  2  0
  7 12  1  0
  8 10  2  0
  8 13  1  0
  9 10  1  0
  9 14  2  0
  9 17  1  0
 11 14  1  0
 12 16  2  0
 13 15  2  0
 15 16  1  0
 18 19  1  0
 19 20  2  0
 19 21  1  0
 20 22  1  0
 21 23  2  0
 22 25  2  0
 23 25  1  0
M  END
>  <PUBCHEM_COMPOUND_CID>  (15) 
165412808

>  <PUBCHEM_COMPOUND_CANONICALIZED>  (15) 
1

>  <PUBCHEM_CACTVS_COMPLEXITY>  (15) 
469

>  <PUBCHEM_CACTVS_HBOND_ACCEPTOR>  (15) 
4

>  <PUBCHEM_CACTVS_HBOND_DONOR>  (15) 
2

>  <PUBCHEM_CACTVS_ROTATABLE_BOND>  (15) 
5

>  <PUBCHEM_CACTVS_SUBSKEYS>  (15) 
AAADceB6OAAEAAAAAAAAAAAAAAAAAAAAAAAwYMAAAAAAAADBVAAAHgIQCAAADAbBmCYyBsLABgCIAiFSEACCCAAkJQAIiIEODsgMJzKHtxuEcShlxhWIuYe66PyO5AADCAAYAADIAAYQADAAAAAAAAAAAA==

>  <PUBCHEM_IUPAC_OPENEYE_NAME>  (15) 
N-[(4-chlorophenyl)methyl]-4-hydroxy-5,7-dimethoxy-naphthalene-2-carboxamide

>  <PUBCHEM_IUPAC_CAS_NAME>  (15) 
N-[(4-chlorophenyl)methyl]-4-hydroxy-5,7-dimethoxy-2-naphthalenecarboxamide

>  <PUBCHEM_IUPAC_NAME_MARKUP>  (15) 
<I>N</I>-[(4-chlorophenyl)methyl]-4-hydroxy-5,7-dimethoxynaphthalene-2-carboxamide

>  <PUBCHEM_IUPAC_NAME>  (15) 
N-[(4-chlorophenyl)methyl]-4-hydroxy-5,7-dimethoxynaphthalene-2-carboxamide

>  <PUBCHEM_IUPAC_SYSTEMATIC_NAME>  (15) 
N-[(4-chlorophenyl)methyl]-5,7-dimethoxy-4-oxidanyl-naphthalene-2-carboxamide

>  <PUBCHEM_IUPAC_TRADITIONAL_NAME>  (15) 
N-(4-chlorobenzyl)-4-hydroxy-5,7-dimethoxy-2-naphthamide

>  <PUBCHEM_IUPAC_INCHI>  (15) 
InChI=1S/C20H18ClNO4/c1-25-16-8-13-7-14(9-17(23)19(13)18(10-16)26-2)20(24)22-11-12-3-5-15(21)6-4-12/h3-10,23H,11H2,1-2H3,(H,22,24)

>  <PUBCHEM_IUPAC_INCHIKEY>  (15) 
JIXYEXYBLVWMHB-UHFFFAOYSA-N

>  <PUBCHEM_XLOGP3_AA>  (15) 
4.2

>  <PUBCHEM_EXACT_MASS>  (15) 
371.0924357

>  <PUBCHEM_MOLECULAR_FORMULA>  (15) 
C20H18ClNO4

>  <PUBCHEM_MOLECULAR_WEIGHT>  (15) 
371.8

>  <PUBCHEM_CACTVS_TPSA>  (15) 
67.8

>  <PUBCHEM_MONOISOTOPIC_WEIGHT>  (15) 
371.0924357

>  <PUBCHEM_TOTAL_CHARGE>  (15) 
0

>  <PUBCHEM_HEAVY_ATOM_COUNT>  (15) 
26

>  <PUBCHEM_ATOM_DEF_STEREO_COUNT>  (15) 
0

>  <PUBCHEM_ATOM_UDEF_STEREO_COUNT>  (15) 
0

>  <PUBCHEM_BOND_DEF_STEREO_COUNT>  (15) 
0

>  <PUBCHEM_BOND_UDEF_STEREO_COUNT>  (15) 
0

>  <PUBCHEM_ISOTOPIC_ATOM_COUNT>  (15) 
0

>  <PUBCHEM_COMPONENT_COUNT>  (15) 
1

>  <PUBCHEM_CACTVS_TAUTO_COUNT>  (15) 
-1

>  <PUBCHEM_COORDINATE_TYPE>  (15) 
1
5
255

>  <PUBCHEM_BONDANNOTATIONS>  (15) 
11  14  8
12  16  8
13  15  8
15  16  8
19  20  8
19  21  8
20  22  8
21  23  8
22  25  8
23  25  8
7  11  8
7  12  8
7  8  8
8  10  8
8  13  8
9  10  8
9  14  8

$$$$
decoy_16
     RDKit          3D

 26 29  0  0  1  0  0  0  0  0999 V2000
   -2.0487    3.5510    0.7013 S   0  0  0  0  0  0  0  0  0  0  0  0
   -4.8037   -0.4958   -1.9315 S   0  0  0  0  0  0  0  0  0  0  0  0
    1.6500   -1.1990    2.6210 O   0  0  0  0  0  0  0  0  0  0  0  0
    2.5847    0.6730   -2.6057 O   0  0  0  0  0  0  0  0  0  0  0  0
    0.9268    4.1266    3.1109 O   0  0  0  0  0  0  0  0  0  0  0  0
   -1.3395    0.8130    0.6798 N   0  0  0  0  0  0  0  0  0  0  0  0
   -2.4396    0.5256   -0.1248 N   0  0  0  0  0  0  0  0  0  0  0  0
   -0.0770    2.3495    1.9776 N   0  0  0  0  0  0  0  0  0  0  0  0
   -0.5961   -0.3967    1.0130 C   0  0  0  0  0  0  0  0  0  0  0  0
   -1.3965   -1.5090    0.3052 C   0  0  0  0  0  0  0  0  0  0  0  0
    0.8352   -0.3190    0.5085 C   0  0  0  0  0  0  0  0  0  0  0  0
   -2.4998   -0.7399   -0.3548 C   0  0  0  0  0  0  0  0  0  0  0  0
   -1.0608    2.1278    1.1746 C   0  0  0  0  0  0  0  0  0  0  0  0
    1.9128   -0.7251    1.3246 C   0  0  0  0  0  0  0  0  0  0  0  0
    1.0914    0.1321   -0.8004 C   0  0  0  0  0  0  0  0  0  0  0  0
   -3.5571   -1.3398   -1.1800 C   0  0  0  0  0  0  0  0  0  0  0  0
    2.3957    0.2074   -1.2959 C   0  0  0  0  0  0  0  0  0  0  0  0
    3.2256   -0.6466    0.8211 C   0  0  0  0  0  0  0  0  0  0  0  0
    3.4648   -0.1832   -0.4735 C   0  0  0  0  0  0  0  0  0  0  0  0
   -3.6982   -2.6907   -1.4745 C   0  0  0  0  0  0  0  0  0  0  0  0
   -0.9848    4.6188    1.7319 C   0  0  0  0  0  0  0  0  0  0  0  0
    0.0270    3.7145    2.3333 C   0  0  0  0  0  0  0  0  0  0  0  0
   -4.8039   -2.9648   -2.2886 C   0  0  0  0  0  0  0  0  0  0  0  0
   -5.5344   -1.8360   -2.6370 C   0  0  0  0  0  0  0  0  0  0  0  0
    2.6451   -1.6323    3.5426 C   0  0  0  0  0  0  0  0  0  0  0  0
    3.8539    0.8025   -3.2380 C   0  0  0  0  0  0  0  0  0  0  0  0
  1 13  1  0
  1 21  1  0
  2 16  1  0
  2 24  1  0
  3 14  1  0
  3 25  1  0
  4 17  1  0
  4 26  1  0
  5 22  2  0
  6  7  1  0
  6  9  1  0
  6 13  1  0
  7 12  2  0
  8 13  2  0
  8 22  1  0
  9 10  1  0
  9 11  1  0
 10 12  1  0
 11 14  2  0
 11 15  1  0
 12 16  1  0
 14 18  1  0
 15 17  2  0
 16 20  2  0
 17 19  1  0
 18 19  2  0
 20 23  1  0
 21 22  1  0
 23 24  2  0
M  END
>  <PUBCHEM_COMPOUND_CID>  (16) 
169450203

>  <PUBCHEM_COMPOUND_CANONICALIZED>  (16) 
1

>  <PUBCHEM_CACTVS_COMPLEXITY>  (16) 
612

>  <PUBCHEM_CACTVS_HBOND_ACCEPTOR>  (16) 
6

>  <PUBCHEM_CACTVS_HBOND_DONOR>  (16) 
0

>  <PUBCHEM_CACTVS_ROTATABLE_BOND>  (16) 
5

>  <PUBCHEM_CACTVS_SUBSKEYS>  (16) 
AAADceB7MABgAAAAAAAAAAAAAAAAASIEAAAwAAAAAAAAAAABwAAAHgQIAAAADCzF2AazB4IABAisAyFyNACTGIFgKBBZiBg+DJgMJqKkuRuEMChmyBEoqAfwwPAOAQABAAAIAAACAAIAABAAAAAAAAAAAA==

>  <PUBCHEM_IUPAC_OPENEYE_NAME>  (16) 
2-[3-(2,5-dimethoxyphenyl)-5-(2-thienyl)-3,4-dihydropyrazol-2-yl]thiazol-4-one

>  <PUBCHEM_IUPAC_CAS_NAME>  (16) 
2-[3-(2,5-dimethoxyphenyl)-5-thiophen-2-yl-3,4-dihydropyrazol-2-yl]-4-thiazolone

>  <PUBCHEM_IUPAC_NAME_MARKUP>  (16) 
2-[3-(2,5-dimethoxyphenyl)-5-thiophen-2-yl-3,4-dihydropyrazol-2-yl]-1,3-thiazol-4-one

>  <PUBCHEM_IUPAC_NAME>  (16) 
2-[3-(2,5-dimethoxyphenyl)-5-thiophen-2-yl-3,4-dihydropyrazol-2-yl]-1,3-thiazol-4-one

>  <PUBCHEM_IUPAC_SYSTEMATIC_NAME>  (16) 
2-[3-(2,5-dimethoxyphenyl)-5-thiophen-2-yl-3,4-dihydropyrazol-2-yl]-1,3-thiazol-4-one

>  <PUBCHEM_IUPAC_TRADITIONAL_NAME>  (16) 
2-[5-(2,5-dimethoxyphenyl)-3-(2-thienyl)-2-pyrazolin-1-yl]-2-thiazolin-4-one

>  <PUBCHEM_IUPAC_INCHI>  (16) 
InChI=1S/C18H17N3O3S2/c1-23-11-5-6-15(24-2)12(8-11)14-9-13(16-4-3-7-25-16)20-21(14)18-19-17(22)10-26-18/h3-8,14H,9-10H2,1-2H3

>  <PUBCHEM_IUPAC_INCHIKEY>  (16) 
UMCNXIONKYGWEL-UHFFFAOYSA-N

>  <PUBCHEM_XLOGP3_AA>  (16) 
3.3

>  <PUBCHEM_EXACT_MASS>  (16) 
387.07113376

>  <PUBCHEM_MOLECULAR_FORMULA>  (16) 
C18H17N3O3S2

>  <PUBCHEM_MOLECULAR_WEIGHT>  (16) 
387.5

>  <PUBCHEM_CACTVS_TPSA>  (16) 
117

>  <PUBCHEM_MONOISOTOPIC_WEIGHT>  (16) 
387.07113376

>  <PUBCHEM_TOTAL_CHARGE>  (16) 
0

>  <PUBCHEM_HEAVY_ATOM_COUNT>  (16) 
26

>  <PUBCHEM_ATOM_DEF_STEREO_COUNT>  (16) 
0

>  <PUBCHEM_ATOM_UDEF_STEREO_COUNT>  (16) 
1

>  <PUBCHEM_BOND_DEF_STEREO_COUNT>  (16) 
0

>  <PUBCHEM_BOND_UDEF_STEREO_COUNT>  (16) 
0

>  <PUBCHEM_ISOTOPIC_ATOM_COUNT>  (16) 
0

>  <PUBCHEM_COMPONENT_COUNT>  (16) 
1

>  <PUBCHEM_CACTVS_TAUTO_COUNT>  (16) 
-1

>  <PUBCHEM_COORDINATE_TYPE>  (16) 
1
5
255

>  <PUBCHEM_BONDANNOTATIONS>  (16) 
11  14  8
11  15  8
14  18  8
15  17  8
16  20  8
17  19  8
18  19  8
2  16  8
2  24  8
20  23  8
23  24  8
9  11  3

$$$$
decoy_17
     RDKit          3D

 27 29  0  0  0  0  0  0  0  0999 V2000
    3.2420   -0.4076   -0.2025 O   0  0  0  0  0  0  0  0  0  0  0  0
   -2.2120   -4.1675    0.0441 O   0  0  0  0  0  0  0  0  0  0  0  0
    6.7703    1.8571    2.6238 O   0  0  0  0  0  0  0  0  0  0  0  0
    5.9630    3.3170    1.0446 O   0  0  0  0  0  0  0  0  0  0  0  0
   -2.1536   -0.1314   -1.3909 N   0  0  0  0  0  0  0  0  0  0  0  0
   -0.8234   -0.0284   -1.1662 C   0  0  0  0  0  0  0  0  0  0  0  0
   -0.2828   -1.2544   -0.8570 C   0  0  0  0  0  0  0  0  0  0  0  0
   -2.4612   -1.4468   -1.2210 C   0  0  0  0  0  0  0  0  0  0  0  0
   -1.3175   -2.1778   -0.8821 C   0  0  0  0  0  0  0  0  0  0  0  0
   -3.0962    0.9666   -1.6472 C   0  0  0  0  0  0  0  0  0  0  0  0
    1.0668   -1.3935   -0.5200 C   0  0  0  0  0  0  0  0  0  0  0  0
   -0.0333    1.1269   -1.1830 C   0  0  0  0  0  0  0  0  0  0  0  0
   -3.8507   -2.0139   -1.3151 C   0  0  0  0  0  0  0  0  0  0  0  0
    1.8881   -0.2523   -0.5338 C   0  0  0  0  0  0  0  0  0  0  0  0
   -3.8233    1.3393   -0.3824 C   0  0  0  0  0  0  0  0  0  0  0  0
   -1.2534   -3.6224   -0.5653 C   0  0  0  0  0  0  0  0  0  0  0  0
    1.3305    1.0079   -0.8718 C   0  0  0  0  0  0  0  0  0  0  0  0
   -5.1812    1.0167   -0.2170 C   0  0  0  0  0  0  0  0  0  0  0  0
   -3.1409    1.9924    0.6576 C   0  0  0  0  0  0  0  0  0  0  0  0
   -0.0703   -4.4592   -0.9366 C   0  0  0  0  0  0  0  0  0  0  0  0
    4.1903    0.6556   -0.1700 C   0  0  0  0  0  0  0  0  0  0  0  0
    5.5581    0.1014    0.2325 C   0  0  0  0  0  0  0  0  0  0  0  0
   -5.8438    1.3445    0.9698 C   0  0  0  0  0  0  0  0  0  0  0  0
   -3.8075    2.3187    1.8426 C   0  0  0  0  0  0  0  0  0  0  0  0
    6.6505    1.1783    0.2198 C   0  0  0  0  0  0  0  0  0  0  0  0
   -5.1577    1.9948    1.9989 C   0  0  0  0  0  0  0  0  0  0  0  0
    6.4485    2.1849    1.3105 C   0  0  0  0  0  0  0  0  0  0  0  0
  1 14  1  0
  1 21  1  0
  2 16  2  0
  3 27  1  0
  4 27  2  0
  5  6  1  0
  5  8  1  0
  5 10  1  0
  6  7  2  0
  6 12  1  0
  7  9  1  0
  7 11  1  0
  8  9  2  0
  8 13  1  0
  9 16  1  0
 10 15  1  0
 11 14  2  0
 12 17  2  0
 14 17  1  0
 15 18  2  0
 15 19  1  0
 16 20  1  0
 18 23  1  0
 19 24  2  0
 21 22  1  0
 22 25  1  0
 23 26  2  0
 24 26  1  0
 25 27  1  0
M  END
>  <PUBCHEM_COMPOUND_CID>  (17) 
155543331

>  <PUBCHEM_COMPOUND_CANONICALIZED>  (17) 
1

>  <PUBCHEM_CACTVS_COMPLEXITY>  (17) 
516

>  <PUBCHEM_CACTVS_HBOND_ACCEPTOR>  (17) 
4

>  <PUBCHEM_CACTVS_HBOND_DONOR>  (17) 
1

>  <PUBCHEM_CACTVS_ROTATABLE_BOND>  (17) 
8

>  <PUBCHEM_CACTVS_SUBSKEYS>  (17) 
AAADceB6OAAAAAAAAAAAAAAAAAAAAWAAAAAwYAAAAAAAAFgB9AAAHgAACAAADAzhngYyzvMMFgCoA6TyTACCiCAlIiAI2CE+bNgMJvrEtZuGeajkwBHI6Uf+3PPOgEABAAACAAAAgAIAAAQAAAAAAAAAAA==

>  <PUBCHEM_IUPAC_OPENEYE_NAME>  (17) 
4-(3-acetyl-1-benzyl-2-methyl-indol-5-yl)oxybutanoic acid

>  <PUBCHEM_IUPAC_CAS_NAME>  (17) 
4-[[3-acetyl-2-methyl-1-(phenylmethyl)-5-indolyl]oxy]butanoic acid

>  <PUBCHEM_IUPAC_NAME_MARKUP>  (17) 
4-(3-acetyl-1-benzyl-2-methylindol-5-yl)oxybutanoic acid

>  <PUBCHEM_IUPAC_NAME>  (17) 
4-(3-acetyl-1-benzyl-2-methylindol-5-yl)oxybutanoic acid

>  <PUBCHEM_IUPAC_SYSTEMATIC_NAME>  (17) 
4-[3-ethanoyl-2-methyl-1-(phenylmethyl)indol-5-yl]oxybutanoic acid

>  <PUBCHEM_IUPAC_TRADITIONAL_NAME>  (17) 
4-(3-acetyl-1-benzyl-2-methyl-indol-5-yl)oxybutyric acid

>  <PUBCHEM_IUPAC_INCHI>  (17) 
InChI=1S/C22H23NO4/c1-15-22(16(2)24)19-13-18(27-12-6-9-21(25)26)10-11-20(19)23(15)14-17-7-4-3-5-8-17/h3-5,7-8,10-11,13H,6,9,12,14H2,1-2H3,(H,25,26)

>  <PUBCHEM_IUPAC_INCHIKEY>  (17) 
AJGIAOZUTGDMKP-UHFFFAOYSA-N

>  <PUBCHEM_XLOGP3_AA>  (17) 
3.5

>  <PUBCHEM_EXACT_MASS>  (17) 
365.16270821

>  <PUBCHEM_MOLECULAR_FORMULA>  (17) 
C22H23NO4

>  <PUBCHEM_MOLECULAR_WEIGHT>  (17) 
365.4

>  <PUBCHEM_CACTVS_TPSA>  (17) 
68.5

>  <PUBCHEM_MONOISOTOPIC_WEIGHT>  (17) 
365.16270821

>  <PUBCHEM_TOTAL_CHARGE>  (17) 
0

>  <PUBCHEM_HEAVY_ATOM_COUNT>  (17) 
27

>  <PUBCHEM_ATOM_DEF_STEREO_COUNT>  (17) 
0

>  <PUBCHEM_ATOM_UDEF_STEREO_COUNT>  (17) 
0

>  <PUBCHEM_BOND_DEF_STEREO_COUNT>  (17) 
0

>  <PUBCHEM_BOND_UDEF_STEREO_COUNT>  (17) 
0

>  <PUBCHEM_ISOTOPIC_ATOM_COUNT>  (17) 
0

>  <PUBCHEM_COMPONENT_COUNT>  (17) 
1

>  <PUBCHEM_CACTVS_TAUTO_COUNT>  (17) 
-1

>  <PUBCHEM_COORDINATE_TYPE>  (17) 
1
5
255

>  <PUBCHEM_BONDANNOTATIONS>  (17) 
11  14  8
12  17  8
14  17  8
15  18  8
15  19  8
18  23  8
19  24  8
23  26  8
24  26  8
5  6  8
5  8  8
6  12  8
6  7  8
7  11  8
7  9  8
8  9  8

$$$$
decoy_18
     RDKit          3D

 32 36  0  0  1  0  0  0  0  0999 V2000
    2.5655    4.8906    2.1072 Cl  0  0  0  0  0  0  0  0  0  0  0  0
    2.1146   -2.8831   -1.4479 S   0  0  0  0  0  0  0  0  0  0  0  0
    1.6334    2.3968    3.4766 F   0  0  0  0  0  0  0  0  0  0  0  0
    1.5353   -2.8302    1.7167 O   0  0  0  0  0  0  0  0  0  0  0  0
   -0.6499    1.5335   -3.6011 O   0  0  0  0  0  0  0  0  0  0  0  0
    5.1893   -0.7611   -0.3825 O   0  0  0  0  0  0  0  0  0  0  0  0
   -0.3003   -1.4601    1.0949 N   0  0  0  0  0  0  0  0  0  0  0  0
    2.8679   -0.7071   -0.0444 N   0  0  0  0  0  0  0  0  0  0  0  0
   -1.3436   -1.7587    2.0855 C   0  0  0  0  0  0  0  0  0  0  0  0
   -2.4697   -0.6687    2.0000 C   0  0  0  0  0  0  0  0  0  0  0  0
    1.6734   -1.4997   -0.3331 C   0  0  1  0  0  0  0  0  0  0  0  0
   -0.5229   -0.6957   -0.0682 C   0  0  0  0  0  0  0  0  0  0  0  0
   -2.8903   -0.2056    0.5695 C   0  0  1  0  0  0  0  0  0  0  0  0
    0.5620   -0.6683   -0.9078 C   0  0  0  0  0  0  0  0  0  0  0  0
   -1.7055   -0.0347   -0.3531 C   0  0  0  0  0  0  0  0  0  0  0  0
    1.0098   -2.0081    0.9203 C   0  0  0  0  0  0  0  0  0  0  0  0
   -1.9055   -3.1679    1.8222 C   0  0  0  0  0  0  0  0  0  0  0  0
   -0.7449   -1.7160    3.5074 C   0  0  0  0  0  0  0  0  0  0  0  0
   -3.9422   -1.1240   -0.0679 C   0  0  0  0  0  0  0  0  0  0  0  0
    0.5286    0.0750   -2.0879 C   0  0  0  0  0  0  0  0  0  0  0  0
   -1.7686    0.7172   -1.5433 C   0  0  0  0  0  0  0  0  0  0  0  0
   -0.6436    0.7867   -2.4118 C   0  0  0  0  0  0  0  0  0  0  0  0
    3.9036   -2.5631   -1.2969 C   0  0  0  0  0  0  0  0  0  0  0  0
    4.0583   -1.2879   -0.5611 C   0  0  0  0  0  0  0  0  0  0  0  0
    2.8283    0.6280    0.4970 C   0  0  0  0  0  0  0  0  0  0  0  0
    2.2641    0.8730    1.7592 C   0  0  0  0  0  0  0  0  0  0  0  0
    3.3158    1.7065   -0.2581 C   0  0  0  0  0  0  0  0  0  0  0  0
   -1.6916    2.4137   -4.0229 C   0  0  0  0  0  0  0  0  0  0  0  0
    2.1828    2.1775    2.2559 C   0  0  0  0  0  0  0  0  0  0  0  0
    3.2350    3.0101    0.2392 C   0  0  0  0  0  0  0  0  0  0  0  0
    2.6672    3.2486    1.4949 C   0  0  0  0  0  0  0  0  0  0  0  0
   -1.6668    3.7073   -3.2157 C   0  0  0  0  0  0  0  0  0  0  0  0
  1 31  1  0
 11  2  1  6
  2 23  1  0
  3 29  1  0
  4 16  2  0
  5 22  1  0
  5 28  1  0
  6 24  2  0
  7  9  1  0
  7 12  1  0
  7 16  1  0
 11  8  1  0
  8 24  1  0
  8 25  1  0
  9 10  1  0
  9 17  1  0
  9 18  1  0
 10 13  1  0
 11 14  1  0
 11 16  1  0
 12 14  1  0
 12 15  2  0
 13 15  1  0
 13 19  1  6
 14 20  2  0
 15 21  1  0
 20 22  1  0
 21 22  2  0
 23 24  1  0
 25 26  2  0
 25 27  1  0
 26 29  1  0
 27 30  2  0
 28 32  1  0
 29 31  2  0
 30 31  1  0
M  END
>  <PUBCHEM_COMPOUND_CID>  (18) 
42583265

>  <PUBCHEM_COMPOUND_CANONICALIZED>  (18) 
1

>  <PUBCHEM_CACTVS_COMPLEXITY>  (18) 
799

>  <PUBCHEM_CACTVS_HBOND_ACCEPTOR>  (18) 
5

>  <PUBCHEM_CACTVS_HBOND_DONOR>  (18) 
0

>  <PUBCHEM_CACTVS_ROTATABLE_BOND>  (18) 
3

>  <PUBCHEM_CACTVS_SUBSKEYS>  (18) 
AAADceB7MQBEAAAAAAAAAAAAAAAAAWLAAAA8YIAAAAAAAFixQAAAHwYAAAAADY6l2CqyxoMABAiIAiVSUACCCABhJxAIiAGGbogMZjLl97uWOCjkxBHo6Ae83PLOgEBDAAACAAAAgIYAAAQAAAAAAAAAAA==

>  <PUBCHEM_IUPAC_OPENEYE_NAME>  (18) 
(3S,9S)-3'-(4-chloro-3-fluoro-phenyl)-6-ethoxy-9,11,11-trimethyl-spiro[1-azatricyclo[6.3.1.04,12]dodeca-4,6,8(12)-triene-3,2'-thiazolidine]-2,4'-dione

>  <PUBCHEM_IUPAC_CAS_NAME>  (18) 
(3S,9S)-3'-(4-chloro-3-fluorophenyl)-6-ethoxy-9,11,11-trimethylspiro[1-azatricyclo[6.3.1.04,12]dodeca-4,6,8(12)-triene-3,2'-thiazolidine]-2,4'-dione

>  <PUBCHEM_IUPAC_NAME_MARKUP>  (18) 
(2<I>S</I>,9&apos;<I>S</I>)-3-(4-chloro-3-fluorophenyl)-6&apos;-ethoxy-9&apos;,11&apos;,11&apos;-trimethylspiro[1,3-thiazolidine-2,3&apos;-1-azatricyclo[6.3.1.0<SUP>4,12</SUP>]dodeca-4,6,8(12)-triene]-2&apos;,4-dione

>  <PUBCHEM_IUPAC_NAME>  (18) 
(2S,9'S)-3-(4-chloro-3-fluorophenyl)-6'-ethoxy-9',11',11'-trimethylspiro[1,3-thiazolidine-2,3'-1-azatricyclo[6.3.1.04,12]dodeca-4,6,8(12)-triene]-2',4-dione

>  <PUBCHEM_IUPAC_SYSTEMATIC_NAME>  (18) 
(2S,9'S)-3-(4-chloranyl-3-fluoranyl-phenyl)-6'-ethoxy-9',11',11'-trimethyl-spiro[1,3-thiazolidine-2,3'-1-azatricyclo[6.3.1.04,12]dodeca-4,6,8(12)-triene]-2',4-dione

>  <PUBCHEM_IUPAC_TRADITIONAL_NAME>  (18) 
(3S,9S)-3'-(4-chloro-3-fluoro-phenyl)-6-ethoxy-9,11,11-trimethyl-spiro[1-azatricyclo[6.3.1.04,12]dodeca-4,6,8(12)-triene-3,2'-thiazolidine]-2,4'-quinone

>  <PUBCHEM_IUPAC_INCHI>  (18) 
InChI=1S/C24H24ClFN2O3S/c1-5-31-15-9-16-13(2)11-23(3,4)28-21(16)17(10-15)24(22(28)30)27(20(29)12-32-24)14-6-7-18(25)19(26)8-14/h6-10,13H,5,11-12H2,1-4H3/t13-,24-/m0/s1

>  <PUBCHEM_IUPAC_INCHIKEY>  (18) 
DRQDMXBXMIYYEV-RZFZLAGVSA-N

>  <PUBCHEM_XLOGP3_AA>  (18) 
4.9

>  <PUBCHEM_EXACT_MASS>  (18) 
474.1180197

>  <PUBCHEM_MOLECULAR_FORMULA>  (18) 
C24H24ClFN2O3S

>  <PUBCHEM_MOLECULAR_WEIGHT>  (18) 
475.0

>  <PUBCHEM_CACTVS_TPSA>  (18) 
75.2

>  <PUBCHEM_MONOISOTOPIC_WEIGHT>  (18) 
474.1180197

>  <PUBCHEM_TOTAL_CHARGE>  (18) 
0

>  <PUBCHEM_HEAVY_ATOM_COUNT>  (18) 
32

>  <PUBCHEM_ATOM_DEF_STEREO_COUNT>  (18) 
2

>  <PUBCHEM_ATOM_UDEF_STEREO_COUNT>  (18) 
0

>  <PUBCHEM_BOND_DEF_STEREO_COUNT>  (18) 
0

>  <PUBCHEM_BOND_UDEF_STEREO_COUNT>  (18) 
0

>  <PUBCHEM_ISOTOPIC_ATOM_COUNT>  (18) 
0

>  <PUBCHEM_COMPONENT_COUNT>  (18) 
1

>  <PUBCHEM_CACTVS_TAUTO_COUNT>  (18) 
-1

>  <PUBCHEM_COORDINATE_TYPE>  (18) 
1
5
255

>  <PUBCHEM_BONDANNOTATIONS>  (18) 
12  14  8
12  15  8
13  19  5
14  20  8
15  21  8
20  22  8
21  22  8
25  26  8
25  27  8
26  29  8
27  30  8
29  31  8
30  31  8
11  8  6

$$$$
decoy_19
     RDKit          3D

 23 24  0  0  0  0  0  0  0  0999 V2000
   -4.2991    1.0830    0.6039 O   0  0  0  0  0  0  0  0  0  0  0  0
   -2.2064    2.3515    1.0042 O   0  0  0  0  0  0  0  0  0  0  0  0
   -1.9058   -2.2059   -0.7295 O   0  0  0  0  0  0  0  0  0  0  0  0
    5.2406   -0.0288   -0.5230 N   0  0  0  0  0  0  0  0  0  0  0  0
    3.5218    0.8724   -1.8426 N   0  0  0  0  0  0  0  0  0  0  0  0
    4.9088   -0.7996    1.7238 N   0  0  0  0  0  0  0  0  0  0  0  0
    5.7507    0.7422   -2.7489 N   0  0  0  0  0  0  0  0  0  0  0  0
   -3.6446    0.0587   -0.1124 C   0  0  0  0  0  0  0  0  0  0  0  0
   -2.1493    0.0039    0.2945 C   0  0  0  0  0  0  0  0  0  0  0  0
   -1.5044    1.1403    0.8691 C   0  0  0  0  0  0  0  0  0  0  0  0
   -1.3532   -1.1422    0.0022 C   0  0  0  0  0  0  0  0  0  0  0  0
    0.5765   -0.1146    1.0822 C   0  0  0  0  0  0  0  0  0  0  0  0
   -4.3896   -1.2598    0.2185 C   0  0  0  0  0  0  0  0  0  0  0  0
   -3.7311    0.3566   -1.6230 C   0  0  0  0  0  0  0  0  0  0  0  0
   -0.1607    1.0528    1.2776 C   0  0  0  0  0  0  0  0  0  0  0  0
   -0.0127   -1.1938    0.4250 C   0  0  0  0  0  0  0  0  0  0  0  0
    2.0284   -0.1803    1.4940 C   0  0  0  0  0  0  0  0  0  0  0  0
    3.0129    0.0654    0.3611 C   0  0  0  0  0  0  0  0  0  0  0  0
    4.3834   -0.2554    0.5075 C   0  0  0  0  0  0  0  0  0  0  0  0
    2.6194    0.6675   -0.8509 C   0  0  0  0  0  0  0  0  0  0  0  0
   -1.6711    3.5573    1.5414 C   0  0  0  0  0  0  0  0  0  0  0  0
   -1.2157   -3.3954   -1.1004 C   0  0  0  0  0  0  0  0  0  0  0  0
    4.8221    0.5210   -1.6901 C   0  0  0  0  0  0  0  0  0  0  0  0
  1  8  1  0
  2 10  1  0
  2 21  1  0
  3 11  1  0
  3 22  1  0
  4 19  2  0
  4 23  1  0
  5 20  1  0
  5 23  2  0
  6 19  1  0
  7 23  1  0
  8  9  1  0
  8 13  1  0
  8 14  1  0
  9 10  2  0
  9 11  1  0
 10 15  1  0
 11 16  2  0
 12 15  2  0
 12 16  1  0
 12 17  1  0
 17 18  1  0
 18 19  1  0
 18 20  2  0
M  END
>  <PUBCHEM_COMPOUND_CID>  (19) 
41526

>  <PUBCHEM_COMPOUND_CANONICALIZED>  (19) 
1

>  <PUBCHEM_CACTVS_COMPLEXITY>  (19) 
368

>  <PUBCHEM_CACTVS_HBOND_ACCEPTOR>  (19) 
7

>  <PUBCHEM_CACTVS_HBOND_DONOR>  (19) 
3

>  <PUBCHEM_CACTVS_ROTATABLE_BOND>  (19) 
5

>  <PUBCHEM_CACTVS_SUBSKEYS>  (19) 
AAADceB7sAAAAAAAAAAAAAAAAAAAAAAAAAA8QAAAAAAAAAABwAAAHgAQCAAADETBmgY/tpZIFgCgAjJnZACCiCkxIKAB2CAuTJiML6LE+VqEdCgtwBdI+CeQ4PwOwAABCAAIAACAAAIQABAAAAAAAAAAAA==

>  <PUBCHEM_IUPAC_OPENEYE_NAME>  (19) 
2-[4-[(2,4-diaminopyrimidin-5-yl)methyl]-2,6-dimethoxy-phenyl]propan-2-ol

>  <PUBCHEM_IUPAC_CAS_NAME>  (19) 
2-[4-[(2,4-diamino-5-pyrimidinyl)methyl]-2,6-dimethoxyphenyl]-2-propanol

>  <PUBCHEM_IUPAC_NAME_MARKUP>  (19) 
2-[4-[(2,4-diaminopyrimidin-5-yl)methyl]-2,6-dimethoxyphenyl]propan-2-ol

>  <PUBCHEM_IUPAC_NAME>  (19) 
2-[4-[(2,4-diaminopyrimidin-5-yl)methyl]-2,6-dimethoxyphenyl]propan-2-ol

>  <PUBCHEM_IUPAC_SYSTEMATIC_NAME>  (19) 
2-[4-[[2,4-bis(azanyl)pyrimidin-5-yl]methyl]-2,6-dimethoxy-phenyl]propan-2-ol

>  <PUBCHEM_IUPAC_TRADITIONAL_NAME>  (19) 
2-[4-[(2,4-diaminopyrimidin-5-yl)methyl]-2,6-dimethoxy-phenyl]propan-2-ol

>  <PUBCHEM_IUPAC_INCHI>  (19) 
InChI=1S/C16H22N4O3/c1-16(2,21)13-11(22-3)6-9(7-12(13)23-4)5-10-8-19-15(18)20-14(10)17/h6-8,21H,5H2,1-4H3,(H4,17,18,19,20)

>  <PUBCHEM_IUPAC_INCHIKEY>  (19) 
ZEHBWBDRLQCJBQ-UHFFFAOYSA-N

>  <PUBCHEM_XLOGP3>  (19) 
1.5

>  <PUBCHEM_EXACT_MASS>  (19) 
318.16919058

>  <PUBCHEM_MOLECULAR_FORMULA>  (19) 
C16H22N4O3

>  <PUBCHEM_MOLECULAR_WEIGHT>  (19) 
318.37

>  <PUBCHEM_CACTVS_TPSA>  (19) 
117

>  <PUBCHEM_MONOISOTOPIC_WEIGHT>  (19) 
318.16919058

>  <PUBCHEM_TOTAL_CHARGE>  (19) 
0

>  <PUBCHEM_HEAVY_ATOM_COUNT>  (19) 
23

>  <PUBCHEM_ATOM_DEF_STEREO_COUNT>  (19) 
0

>  <PUBCHEM_ATOM_UDEF_STEREO_COUNT>  (19) 
0

>  <PUBCHEM_BOND_DEF_STEREO_COUNT>  (19) 
0

>  <PUBCHEM_BOND_UDEF_STEREO_COUNT>  (19) 
0

>  <PUBCHEM_ISOTOPIC_ATOM_COUNT>  (19) 
0

>  <PUBCHEM_COMPONENT_COUNT>  (19) 
1

>  <PUBCHEM_CACTVS_TAUTO_COUNT>  (19) 
-1

>  <PUBCHEM_COORDINATE_TYPE>  (19) 
1
5
255

>  <PUBCHEM_BONDANNOTATIONS>  (19) 
10  15  8
11  16  8
12  15  8
12  16  8
18  19  8
18  20  8
4  19  8
4  23  8
5  20  8
5  23  8
9  10  8
9  11  8

$$$$
decoy_20
     RDKit          3D

 24 26  0  0  0  0  0  0  0  0999 V2000
    1.6292   -1.8762   -3.1863 I   0  0  0  0  0  0  0  0  0  0  0  0
    3.2408   -0.9439   -0.5759 O   0  0  0  0  0  0  0  0  0  0  0  0
   -2.1135    0.7362   -0.1761 O   0  0  0  0  0  0  0  0  0  0  0  0
   -5.4668   -0.0028   -1.4671 N   0  0  0  0  0  0  0  0  0  0  0  0
   -4.3412   -2.0405   -1.1337 N   0  0  0  0  0  0  0  0  0  0  0  0
   -4.4513    2.1271   -0.9877 N   0  0  0  0  0  0  0  0  0  0  0  0
   -6.5974   -2.0694   -1.9847 N   0  0  0  0  0  0  0  0  0  0  0  0
    5.5618   -1.3617   -0.1091 C   0  0  0  0  0  0  0  0  0  0  0  0
    6.4075   -0.5189   -1.0510 C   0  0  0  0  0  0  0  0  0  0  0  0
    6.8486   -0.7241    0.3909 C   0  0  0  0  0  0  0  0  0  0  0  0
    4.2710   -0.7015    0.3773 C   0  0  0  0  0  0  0  0  0  0  0  0
    1.9124   -0.5097   -0.4460 C   0  0  0  0  0  0  0  0  0  0  0  0
    0.1278    0.6369    0.7833 C   0  0  0  0  0  0  0  0  0  0  0  0
    1.4669    0.2146    0.6752 C   0  0  0  0  0  0  0  0  0  0  0  0
   -0.2989    1.4139    2.0228 C   0  0  0  0  0  0  0  0  0  0  0  0
    1.0072   -0.8076   -1.4704 C   0  0  0  0  0  0  0  0  0  0  0  0
   -0.7788    0.3118   -0.2527 C   0  0  0  0  0  0  0  0  0  0  0  0
   -0.3222   -0.3951   -1.3773 C   0  0  0  0  0  0  0  0  0  0  0  0
   -1.3563    0.6561    2.8361 C   0  0  0  0  0  0  0  0  0  0  0  0
   -0.7650    2.8333    1.6751 C   0  0  0  0  0  0  0  0  0  0  0  0
   -3.2244    0.0176   -0.6444 C   0  0  0  0  0  0  0  0  0  0  0  0
   -4.3870    0.6999   -1.0328 C   0  0  0  0  0  0  0  0  0  0  0  0
   -3.2369   -1.3847   -0.6945 C   0  0  0  0  0  0  0  0  0  0  0  0
   -5.4498   -1.3600   -1.5239 C   0  0  0  0  0  0  0  0  0  0  0  0
  1 16  1  0
  2 11  1  0
  2 12  1  0
  3 17  1  0
  3 21  1  0
  4 22  2  0
  4 24  1  0
  5 23  1  0
  5 24  2  0
  6 22  1  0
  7 24  1  0
  8  9  1  0
  8 10  1  0
  8 11  1  0
  9 10  1  0
 12 14  1  0
 12 16  2  0
 13 14  2  0
 13 15  1  0
 13 17  1  0
 15 19  1  0
 15 20  1  0
 16 18  1  0
 17 18  2  0
 21 22  1  0
 21 23  2  0
M  END
>  <PUBCHEM_COMPOUND_CID>  (20) 
171038101

>  <PUBCHEM_COMPOUND_CANONICALIZED>  (20) 
1

>  <PUBCHEM_CACTVS_COMPLEXITY>  (20) 
410

>  <PUBCHEM_CACTVS_HBOND_ACCEPTOR>  (20) 
6

>  <PUBCHEM_CACTVS_HBOND_DONOR>  (20) 
2

>  <PUBCHEM_CACTVS_ROTATABLE_BOND>  (20) 
6

>  <PUBCHEM_CACTVS_SUBSKEYS>  (20) 
AAADceB7sAAAAgAAAAAAAAAAGAAAAAAAAAA8QAAAAAAAAAABwAAAHgAwAAAADQTjmgY/tpZIFACgAjJnZASCiCkxYKAB2CAvTJiOLqLEeVqHPCiswBNYqCfAwPAOgQABAAAIAAACAAIAABAAAAAAAAAAAA==

>  <PUBCHEM_IUPAC_OPENEYE_NAME>  (20) 
5-[4-(cyclopropylmethoxy)-5-iodo-2-isopropyl-phenoxy]pyrimidine-2,4-diamine

>  <PUBCHEM_IUPAC_CAS_NAME>  (20) 
5-[4-(cyclopropylmethoxy)-5-iodo-2-propan-2-ylphenoxy]pyrimidine-2,4-diamine

>  <PUBCHEM_IUPAC_NAME_MARKUP>  (20) 
5-[4-(cyclopropylmethoxy)-5-iodo-2-propan-2-ylphenoxy]pyrimidine-2,4-diamine

>  <PUBCHEM_IUPAC_NAME>  (20) 
5-[4-(cyclopropylmethoxy)-5-iodo-2-propan-2-ylphenoxy]pyrimidine-2,4-diamine

>  <PUBCHEM_IUPAC_SYSTEMATIC_NAME>  (20) 
5-[4-(cyclopropylmethoxy)-5-iodanyl-2-propan-2-yl-phenoxy]pyrimidine-2,4-diamine

>  <PUBCHEM_IUPAC_TRADITIONAL_NAME>  (20) 
[2-amino-5-[4-(cyclopropylmethoxy)-5-iodo-2-isopropyl-phenoxy]pyrimidin-4-yl]amine

>  <PUBCHEM_IUPAC_INCHI>  (20) 
InChI=1S/C17H21IN4O2/c1-9(2)11-5-14(23-8-10-3-4-10)12(18)6-13(11)24-15-7-21-17(20)22-16(15)19/h5-7,9-10H,3-4,8H2,1-2H3,(H4,19,20,21,22)

>  <PUBCHEM_IUPAC_INCHIKEY>  (20) 
OOZZEXUFFLIQPD-UHFFFAOYSA-N

>  <PUBCHEM_XLOGP3_AA>  (20) 
3.5

>  <PUBCHEM_EXACT_MASS>  (20) 
440.07092

>  <PUBCHEM_MOLECULAR_FORMULA>  (20) 
C17H21IN4O2

>  <PUBCHEM_MOLECULAR_WEIGHT>  (20) 
440.3

>  <PUBCHEM_CACTVS_TPSA>  (20) 
96.3

>  <PUBCHEM_MONOISOTOPIC_WEIGHT>  (20) 
440.07092

>  <PUBCHEM_TOTAL_CHARGE>  (20) 
0

>  <PUBCHEM_HEAVY_ATOM_COUNT>  (20) 
24

>  <PUBCHEM_ATOM_DEF_STEREO_COUNT>  (20) 
0

>  <PUBCHEM_ATOM_UDEF_STEREO_COUNT>  (20) 
0

>  <PUBCHEM_BOND_DEF_STEREO_COUNT>  (20) 
0

>  <PUBCHEM_BOND_UDEF_STEREO_COUNT>  (20) 
0

>  <PUBCHEM_ISOTOPIC_ATOM_COUNT>  (20) 
0

>  <PUBCHEM_COMPONENT_COUNT>  (20) 
1

>  <PUBCHEM_CACTVS_TAUTO_COUNT>  (20) 
-1

>  <PUBCHEM_COORDINATE_TYPE>  (20) 
1
5
255

>  <PUBCHEM_BONDANNOTATIONS>  (20) 
12  14  8
12  16  8
13  14  8
13  17  8
16  18  8
17  18  8
21  22  8
21  23  8
4  22  8
4  24  8
5  23  8
5  24  8

$$$$
decoy_21
     RDKit          3D

 22 24  0  0  0  0  0  0  0  0999 V2000
   -2.3613    4.8789   -0.4544 Br  0  0  0  0  0  0  0  0  0  0  0  0
   -0.4309   -4.4885   -0.8416 S   0  0  0  0  0  0  0  0  0  0  0  0
    0.0041   -0.1489    1.2192 O   0  0  0  0  0  0  0  0  0  0  0  0
    4.8530   -0.1326    0.1539 O   0  0  0  0  0  0  0  0  0  0  0  0
   -1.2158   -2.1224   -0.5758 N   0  0  0  0  0  0  0  0  0  0  0  0
   -2.9001   -3.3854   -1.3760 N   0  0  0  0  0  0  0  0  0  0  0  0
    2.1130   -0.7009    0.3839 N   0  0  0  0  0  0  0  0  0  0  0  0
    2.7440    0.3816    1.0240 N   0  0  0  0  0  0  0  0  0  0  0  0
   -2.2653   -1.3031   -0.7599 C   0  0  0  0  0  0  0  0  0  0  0  0
    0.0696   -2.0884   -0.1332 C   0  0  0  0  0  0  0  0  0  0  0  0
   -1.6230   -3.3191   -0.9580 C   0  0  0  0  0  0  0  0  0  0  0  0
   -2.2720    0.1682   -0.6683 C   0  0  0  0  0  0  0  0  0  0  0  0
   -3.3073   -2.0947   -1.2413 C   0  0  0  0  0  0  0  0  0  0  0  0
    0.6879   -3.3470   -0.2309 C   0  0  0  0  0  0  0  0  0  0  0  0
    0.7033   -0.9265    0.5162 C   0  0  0  0  0  0  0  0  0  0  0  0
   -1.2446    0.9241   -1.2564 C   0  0  0  0  0  0  0  0  0  0  0  0
   -3.3445    0.8286   -0.0487 C   0  0  0  0  0  0  0  0  0  0  0  0
   -1.2696    2.3202   -1.1875 C   0  0  0  0  0  0  0  0  0  0  0  0
   -3.3676    2.2252    0.0179 C   0  0  0  0  0  0  0  0  0  0  0  0
   -2.3285    2.9717   -0.5472 C   0  0  0  0  0  0  0  0  0  0  0  0
    4.1477    0.6243    0.8739 C   0  0  0  0  0  0  0  0  0  0  0  0
    4.7799    1.7898    1.5625 C   0  0  0  0  0  0  0  0  0  0  0  0
  1 20  1  0
  2 11  1  0
  2 14  1  0
  3 15  2  0
  4 21  2  0
  5  9  1  0
  5 10  1  0
  5 11  1  0
  6 11  2  0
  6 13  1  0
  7  8  1  0
  7 15  1  0
  8 21  1  0
  9 12  1  0
  9 13  2  0
 10 14  2  0
 10 15  1  0
 12 16  2  0
 12 17  1  0
 16 18  1  0
 17 19  2  0
 18 20  2  0
 19 20  1  0
 21 22  1  0
M  END
>  <PUBCHEM_COMPOUND_CID>  (21) 
165412706

>  <PUBCHEM_COMPOUND_CANONICALIZED>  (21) 
1

>  <PUBCHEM_CACTVS_COMPLEXITY>  (21) 
445

>  <PUBCHEM_CACTVS_HBOND_ACCEPTOR>  (21) 
4

>  <PUBCHEM_CACTVS_HBOND_DONOR>  (21) 
2

>  <PUBCHEM_CACTVS_ROTATABLE_BOND>  (21) 
2

>  <PUBCHEM_CACTVS_SUBSKEYS>  (21) 
AAADccBzsABAEAAAAAAAAAAAAAAAAWLAAAAwAAAAAAAWAAAB8AAAHgRYAAABrAjF3gS/kZduGAisAzV3dACC8K13Gr4b+DW4dPiIaOLgmTGUIAhokALIyrcQgIAOAgAAAAAAAAAEAAAAAAAAAAAAAAAAAA==

>  <PUBCHEM_IUPAC_OPENEYE_NAME>  (21) 
N'-acetyl-5-(4-bromophenyl)imidazo[2,1-b]thiazole-3-carbohydrazide

>  <PUBCHEM_IUPAC_CAS_NAME>  (21) 
N'-acetyl-5-(4-bromophenyl)-3-imidazo[2,1-b]thiazolecarbohydrazide

>  <PUBCHEM_IUPAC_NAME_MARKUP>  (21) 
<I>N</I>&apos;-acetyl-5-(4-bromophenyl)imidazo[2,1-b][1,3]thiazole-3-carbohydrazide

>  <PUBCHEM_IUPAC_NAME>  (21) 
N'-acetyl-5-(4-bromophenyl)imidazo[2,1-b][1,3]thiazole-3-carbohydrazide

>  <PUBCHEM_IUPAC_SYSTEMATIC_NAME>  (21) 
5-(4-bromophenyl)-N'-ethanoyl-imidazo[2,1-b][1,3]thiazole-3-carbohydrazide

>  <PUBCHEM_IUPAC_TRADITIONAL_NAME>  (21) 
N'-acetyl-5-(4-bromophenyl)imidazo[2,1-b]thiazole-3-carbohydrazide

>  <PUBCHEM_IUPAC_INCHI>  (21) 
InChI=1S/C14H11BrN4O2S/c1-8(20)17-18-13(21)12-7-22-14-16-6-11(19(12)14)9-2-4-10(15)5-3-9/h2-7H,1H3,(H,17,20)(H,18,21)

>  <PUBCHEM_IUPAC_INCHIKEY>  (21) 
OJCVSCAUEKBQAE-UHFFFAOYSA-N

>  <PUBCHEM_XLOGP3_AA>  (21) 
3.3

>  <PUBCHEM_EXACT_MASS>  (21) 
377.97861

>  <PUBCHEM_MOLECULAR_FORMULA>  (21) 
C14H11BrN4O2S

>  <PUBCHEM_MOLECULAR_WEIGHT>  (21) 
379.23

>  <PUBCHEM_CACTVS_TPSA>  (21) 
104

>  <PUBCHEM_MONOISOTOPIC_WEIGHT>  (21) 
377.97861

>  <PUBCHEM_TOTAL_CHARGE>  (21) 
0

>  <PUBCHEM_HEAVY_ATOM_COUNT>  (21) 
22

>  <PUBCHEM_ATOM_DEF_STEREO_COUNT>  (21) 
0

>  <PUBCHEM_ATOM_UDEF_STEREO_COUNT>  (21) 
0

>  <PUBCHEM_BOND_DEF_STEREO_COUNT>  (21) 
0

>  <PUBCHEM_BOND_UDEF_STEREO_COUNT>  (21) 
0

>  <PUBCHEM_ISOTOPIC_ATOM_COUNT>  (21) 
0

>  <PUBCHEM_COMPONENT_COUNT>  (21) 
1

>  <PUBCHEM_CACTVS_TAUTO_COUNT>  (21) 
-1

>  <PUBCHEM_COORDINATE_TYPE>  (21) 
1
5
255

>  <PUBCHEM_BONDANNOTATIONS>  (21) 
10  14  8
12  16  8
12  17  8
16  18  8
17  19  8
18  20  8
19  20  8
2  11  8
2  14  8
5  10  8
5  11  8
5  9  8
6  11  8
6  13  8
9  13  8

$$$$
decoy_22
     RDKit          3D

 27 29  0  0  0  0  0  0  0  0999 V2000
    3.3629   -0.8397   -0.0281 O   0  0  0  0  0  0  0  0  0  0  0  0
   -2.2845   -3.7686    1.8206 O   0  0  0  0  0  0  0  0  0  0  0  0
    7.1949    1.8983    1.8530 O   0  0  0  0  0  0  0  0  0  0  0  0
    7.4763    1.5637   -0.4022 O   0  0  0  0  0  0  0  0  0  0  0  0
   -2.0669   -0.6214   -1.0776 N   0  0  0  0  0  0  0  0  0  0  0  0
   -0.7221   -0.5434   -0.9506 C   0  0  0  0  0  0  0  0  0  0  0  0
   -0.2393   -1.5918   -0.2039 C   0  0  0  0  0  0  0  0  0  0  0  0
   -2.4427   -1.7400   -0.3986 C   0  0  0  0  0  0  0  0  0  0  0  0
   -1.3273   -2.3695    0.1643 C   0  0  0  0  0  0  0  0  0  0  0  0
   -2.9549    0.3624   -1.7127 C   0  0  0  0  0  0  0  0  0  0  0  0
    1.1164   -1.6936    0.1208 C   0  0  0  0  0  0  0  0  0  0  0  0
    0.1337    0.4492   -1.4411 C   0  0  0  0  0  0  0  0  0  0  0  0
   -3.8669   -2.1891   -0.2219 C   0  0  0  0  0  0  0  0  0  0  0  0
    2.0035   -0.7131   -0.3582 C   0  0  0  0  0  0  0  0  0  0  0  0
   -3.5807    1.2524   -0.6717 C   0  0  0  0  0  0  0  0  0  0  0  0
   -1.3319   -3.5787    1.0182 C   0  0  0  0  0  0  0  0  0  0  0  0
    1.5035    0.3549   -1.1485 C   0  0  0  0  0  0  0  0  0  0  0  0
   -2.7992    2.2029    0.0065 C   0  0  0  0  0  0  0  0  0  0  0  0
   -4.9425    1.1259   -0.3483 C   0  0  0  0  0  0  0  0  0  0  0  0
   -0.2248   -4.5835    0.9677 C   0  0  0  0  0  0  0  0  0  0  0  0
    4.3842    0.1090   -0.3362 C   0  0  0  0  0  0  0  0  0  0  0  0
    4.3002    1.3175    0.6061 C   0  0  0  0  0  0  0  0  0  0  0  0
   -3.3721    3.0142    0.9906 C   0  0  0  0  0  0  0  0  0  0  0  0
   -5.5114    1.9391    0.6368 C   0  0  0  0  0  0  0  0  0  0  0  0
    5.3330    2.3971    0.2597 C   0  0  0  0  0  0  0  0  0  0  0  0
   -4.7270    2.8824    1.3058 C   0  0  0  0  0  0  0  0  0  0  0  0
    6.7306    1.9383    0.5420 C   0  0  0  0  0  0  0  0  0  0  0  0
  1 14  1  0
  1 21  1  0
  2 16  2  0
  3 27  1  0
  4 27  2  0
  5  6  1  0
  5  8  1  0
  5 10  1  0
  6  7  2  0
  6 12  1  0
  7  9  1  0
  7 11  1  0
  8  9  2  0
  8 13  1  0
  9 16  1  0
 10 15  1  0
 11 14  2  0
 12 17  2  0
 14 17  1  0
 15 18  2  0
 15 19  1  0
 16 20  1  0
 18 23  1  0
 19 24  2  0
 21 22  1  0
 22 25  1  0
 23 26  2  0
 24 26  1  0
 25 27  1  0
M  END
>  <PUBCHEM_COMPOUND_CID>  (22) 
155543331

>  <PUBCHEM_COMPOUND_CANONICALIZED>  (22) 
1

>  <PUBCHEM_CACTVS_COMPLEXITY>  (22) 
516

>  <PUBCHEM_CACTVS_HBOND_ACCEPTOR>  (22) 
4

>  <PUBCHEM_CACTVS_HBOND_DONOR>  (22) 
1

>  <PUBCHEM_CACTVS_ROTATABLE_BOND>  (22) 
8

>  <PUBCHEM_CACTVS_SUBSKEYS>  (22) 
AAADceB6OAAAAAAAAAAAAAAAAAAAAWAAAAAwYAAAAAAAAFgB9AAAHgAACAAADAzhngYyzvMMFgCoA6TyTACCiCAlIiAI2CE+bNgMJvrEtZuGeajkwBHI6Uf+3PPOgEABAAACAAAAgAIAAAQAAAAAAAAAAA==

>  <PUBCHEM_IUPAC_OPENEYE_NAME>  (22) 
4-(3-acetyl-1-benzyl-2-methyl-indol-5-yl)oxybutanoic acid

>  <PUBCHEM_IUPAC_CAS_NAME>  (22) 
4-[[3-acetyl-2-methyl-1-(phenylmethyl)-5-indolyl]oxy]butanoic acid

>  <PUBCHEM_IUPAC_NAME_MARKUP>  (22) 
4-(3-acetyl-1-benzyl-2-methylindol-5-yl)oxybutanoic acid

>  <PUBCHEM_IUPAC_NAME>  (22) 
4-(3-acetyl-1-benzyl-2-methylindol-5-yl)oxybutanoic acid

>  <PUBCHEM_IUPAC_SYSTEMATIC_NAME>  (22) 
4-[3-ethanoyl-2-methyl-1-(phenylmethyl)indol-5-yl]oxybutanoic acid

>  <PUBCHEM_IUPAC_TRADITIONAL_NAME>  (22) 
4-(3-acetyl-1-benzyl-2-methyl-indol-5-yl)oxybutyric acid

>  <PUBCHEM_IUPAC_INCHI>  (22) 
InChI=1S/C22H23NO4/c1-15-22(16(2)24)19-13-18(27-12-6-9-21(25)26)10-11-20(19)23(15)14-17-7-4-3-5-8-17/h3-5,7-8,10-11,13H,6,9,12,14H2,1-2H3,(H,25,26)

>  <PUBCHEM_IUPAC_INCHIKEY>  (22) 
AJGIAOZUTGDMKP-UHFFFAOYSA-N

>  <PUBCHEM_XLOGP3_AA>  (22) 
3.5

>  <PUBCHEM_EXACT_MASS>  (22) 
365.16270821

>  <PUBCHEM_MOLECULAR_FORMULA>  (22) 
C22H23NO4

>  <PUBCHEM_MOLECULAR_WEIGHT>  (22) 
365.4

>  <PUBCHEM_CACTVS_TPSA>  (22) 
68.5

>  <PUBCHEM_MONOISOTOPIC_WEIGHT>  (22) 
365.16270821

>  <PUBCHEM_TOTAL_CHARGE>  (22) 
0

>  <PUBCHEM_HEAVY_ATOM_COUNT>  (22) 
27

>  <PUBCHEM_ATOM_DEF_STEREO_COUNT>  (22) 
0

>  <PUBCHEM_ATOM_UDEF_STEREO_COUNT>  (22) 
0

>  <PUBCHEM_BOND_DEF_STEREO_COUNT>  (22) 
0

>  <PUBCHEM_BOND_UDEF_STEREO_COUNT>  (22) 
0

>  <PUBCHEM_ISOTOPIC_ATOM_COUNT>  (22) 
0

>  <PUBCHEM_COMPONENT_COUNT>  (22) 
1

>  <PUBCHEM_CACTVS_TAUTO_COUNT>  (22) 
-1

>  <PUBCHEM_COORDINATE_TYPE>  (22) 
1
5
255

>  <PUBCHEM_BONDANNOTATIONS>  (22) 
11  14  8
12  17  8
14  17  8
15  18  8
15  19  8
18  23  8
19  24  8
23  26  8
24  26  8
5  6  8
5  8  8
6  12  8
6  7  8
7  11  8
7  9  8
8  9  8

$$$$
decoy_23
     RDKit          3D

 28 30  0  0  0  0  0  0  0  0999 V2000
   -1.4472   -2.7412   -0.5203 O   0  0  0  0  0  0  0  0  0  0  0  0
    7.8573    0.1401    1.1300 O   0  0  0  0  0  0  0  0  0  0  0  0
    7.2770   -1.1613    2.8842 O   0  0  0  0  0  0  0  0  0  0  0  0
   -1.2698   -0.3546   -0.4769 N   0  0  0  0  0  0  0  0  0  0  0  0
    6.9124   -0.5382    1.8654 N   0  0  0  0  0  0  0  0  0  0  0  0
    1.7570   -4.0217    0.2515 N   0  0  0  0  0  0  0  0  0  0  0  0
    1.3961   -0.4888    0.2580 C   0  0  0  0  0  0  0  0  0  0  0  0
   -0.5845    0.8075   -0.3035 C   0  0  0  0  0  0  0  0  0  0  0  0
    2.8212   -0.5155    0.6704 C   0  0  0  0  0  0  0  0  0  0  0  0
    0.7665    0.7519    0.0750 C   0  0  0  0  0  0  0  0  0  0  0  0
   -1.2901    2.1002   -0.4970 C   0  0  0  0  0  0  0  0  0  0  0  0
    0.6551   -1.6726    0.0477 C   0  0  0  0  0  0  0  0  0  0  0  0
   -0.6957   -1.5779   -0.3176 C   0  0  0  0  0  0  0  0  0  0  0  0
   -0.6061    3.2534   -0.9279 C   0  0  0  0  0  0  0  0  0  0  0  0
   -2.6761    2.1806   -0.2702 C   0  0  0  0  0  0  0  0  0  0  0  0
   -2.8253   -2.7186   -0.8811 C   0  0  0  0  0  0  0  0  0  0  0  0
    3.7839    0.1837   -0.0736 C   0  0  0  0  0  0  0  0  0  0  0  0
    3.2191   -1.2094    1.8239 C   0  0  0  0  0  0  0  0  0  0  0  0
   -2.6732    4.5289   -0.8892 C   0  0  0  0  0  0  0  0  0  0  0  0
   -3.3539   -4.1457   -1.0196 C   0  0  0  0  0  0  0  0  0  0  0  0
   -1.2912    4.4580   -1.1124 C   0  0  0  0  0  0  0  0  0  0  0  0
   -3.3588    3.3863   -0.4543 C   0  0  0  0  0  0  0  0  0  0  0  0
    5.1258    0.1737    0.3175 C   0  0  0  0  0  0  0  0  0  0  0  0
    4.5606   -1.2200    2.2160 C   0  0  0  0  0  0  0  0  0  0  0  0
    5.5297   -0.5297    1.4654 C   0  0  0  0  0  0  0  0  0  0  0  0
   -3.3166   -4.8954    0.3103 C   0  0  0  0  0  0  0  0  0  0  0  0
   -3.3995    5.8315   -1.0496 C   0  0  0  0  0  0  0  0  0  0  0  0
    1.2674   -2.9770    0.1611 C   0  0  0  0  0  0  0  0  0  0  0  0
  1 13  1  0
  1 16  1  0
  2  5  1  0
  3  5  2  0
  4  8  2  0
  4 13  1  0
  5 25  1  0
  6 28  3  0
  7  9  1  0
  7 10  2  0
  7 12  1  0
  8 10  1  0
  8 11  1  0
  9 17  2  0
  9 18  1  0
 11 14  2  0
 11 15  1  0
 12 13  2  0
 12 28  1  0
 14 21  1  0
 15 22  2  0
 16 20  1  0
 17 23  1  0
 18 24  2  0
 19 21  2  0
 19 22  1  0
 19 27  1  0
 20 26  1  0
 23 25  2  0
 24 25  1  0
M  CHG  2   2  -1   5   1
M  END
>  <PUBCHEM_COMPOUND_CID>  (23) 
169450172

>  <PUBCHEM_COMPOUND_CANONICALIZED>  (23) 
1

>  <PUBCHEM_CACTVS_COMPLEXITY>  (23) 
553

>  <PUBCHEM_CACTVS_HBOND_ACCEPTOR>  (23) 
5

>  <PUBCHEM_CACTVS_HBOND_DONOR>  (23) 
0

>  <PUBCHEM_CACTVS_ROTATABLE_BOND>  (23) 
5

>  <PUBCHEM_CACTVS_SUBSKEYS>  (23) 
AAADceB7MAAAAAAAAAAAAAAAAAAAAAAAAAA8YIAAAAAAAAAB0AAAHgAEAAAADAihngIyxJIYVACxByRiRwCiiCAhIiAomCA0bJoMpuLEsZuOOCjkwBHI6A+Q0OEOyAAAAAAAAACQAAAAAAAAAAAAAAAAAA==

>  <PUBCHEM_IUPAC_OPENEYE_NAME>  (23) 
4-(4-nitrophenyl)-2-propoxy-6-(p-tolyl)pyridine-3-carbonitrile

>  <PUBCHEM_IUPAC_CAS_NAME>  (23) 
6-(4-methylphenyl)-4-(4-nitrophenyl)-2-propoxy-3-pyridinecarbonitrile

>  <PUBCHEM_IUPAC_NAME_MARKUP>  (23) 
6-(4-methylphenyl)-4-(4-nitrophenyl)-2-propoxypyridine-3-carbonitrile

>  <PUBCHEM_IUPAC_NAME>  (23) 
6-(4-methylphenyl)-4-(4-nitrophenyl)-2-propoxypyridine-3-carbonitrile

>  <PUBCHEM_IUPAC_SYSTEMATIC_NAME>  (23) 
6-(4-methylphenyl)-4-(4-nitrophenyl)-2-propoxy-pyridine-3-carbonitrile

>  <PUBCHEM_IUPAC_TRADITIONAL_NAME>  (23) 
4-(4-nitrophenyl)-2-propoxy-6-(p-tolyl)nicotinonitrile

>  <PUBCHEM_IUPAC_INCHI>  (23) 
InChI=1S/C22H19N3O3/c1-3-12-28-22-20(14-23)19(16-8-10-18(11-9-16)25(26)27)13-21(24-22)17-6-4-15(2)5-7-17/h4-11,13H,3,12H2,1-2H3

>  <PUBCHEM_IUPAC_INCHIKEY>  (23) 
SZXRICGJAJGTRE-UHFFFAOYSA-N

>  <PUBCHEM_XLOGP3_AA>  (23) 
5.3

>  <PUBCHEM_EXACT_MASS>  (23) 
373.14264148

>  <PUBCHEM_MOLECULAR_FORMULA>  (23) 
C22H19N3O3

>  <PUBCHEM_MOLECULAR_WEIGHT>  (23) 
373.4

>  <PUBCHEM_CACTVS_TPSA>  (23) 
91.7

>  <PUBCHEM_MONOISOTOPIC_WEIGHT>  (23) 
373.14264148

>  <PUBCHEM_TOTAL_CHARGE>  (23) 
0

>  <PUBCHEM_HEAVY_ATOM_COUNT>  (23) 
28

>  <PUBCHEM_ATOM_DEF_STEREO_COUNT>  (23) 
0

>  <PUBCHEM_ATOM_UDEF_STEREO_COUNT>  (23) 
0

>  <PUBCHEM_BOND_DEF_STEREO_COUNT>  (23) 
0

>  <PUBCHEM_BOND_UDEF_STEREO_COUNT>  (23) 
0

>  <PUBCHEM_ISOTOPIC_ATOM_COUNT>  (23) 
0

>  <PUBCHEM_COMPONENT_COUNT>  (23) 
1

>  <PUBCHEM_CACTVS_TAUTO_COUNT>  (23) 
-1

>  <PUBCHEM_COORDINATE_TYPE>  (23) 
1
5
255

>  <PUBCHEM_BONDANNOTATIONS>  (23) 
11  14  8
11  15  8
12  13  8
14  21  8
15  22  8
17  23  8
18  24  8
19  21  8
19  22  8
23  25  8
24  25  8
4  13  8
4  8  8
7  10  8
7  12  8
8  10  8
9  17  8
9  18  8

$$$$
decoy_24
     RDKit          3D

 22 24  0  0  0  0  0  0  0  0999 V2000
   -2.1134    4.8893    0.9099 Br  0  0  0  0  0  0  0  0  0  0  0  0
   -0.6859   -4.2577   -1.5169 S   0  0  0  0  0  0  0  0  0  0  0  0
    0.9336    0.1077   -0.2190 O   0  0  0  0  0  0  0  0  0  0  0  0
    3.6929   -0.1372    0.2131 O   0  0  0  0  0  0  0  0  0  0  0  0
   -1.0540   -1.7949   -1.2217 N   0  0  0  0  0  0  0  0  0  0  0  0
   -2.5478   -2.6051   -2.7002 N   0  0  0  0  0  0  0  0  0  0  0  0
    1.4890   -1.3709    1.5033 N   0  0  0  0  0  0  0  0  0  0  0  0
    2.3922   -0.4910    2.1263 N   0  0  0  0  0  0  0  0  0  0  0  0
   -1.8368   -0.7663   -1.5905 C   0  0  0  0  0  0  0  0  0  0  0  0
    0.0100   -2.0625   -0.4177 C   0  0  0  0  0  0  0  0  0  0  0  0
   -1.5095   -2.8460   -1.8793 C   0  0  0  0  0  0  0  0  0  0  0  0
   -1.8777    0.5799   -0.9917 C   0  0  0  0  0  0  0  0  0  0  0  0
   -2.7483   -1.2726   -2.5161 C   0  0  0  0  0  0  0  0  0  0  0  0
    0.3499   -3.4260   -0.4388 C   0  0  0  0  0  0  0  0  0  0  0  0
    0.8197   -1.0451    0.2764 C   0  0  0  0  0  0  0  0  0  0  0  0
   -1.8809    0.7396    0.4037 C   0  0  0  0  0  0  0  0  0  0  0  0
   -1.9830    1.7119   -1.8147 C   0  0  0  0  0  0  0  0  0  0  0  0
   -1.9455    2.0179    0.9660 C   0  0  0  0  0  0  0  0  0  0  0  0
   -2.0484    2.9894   -1.2498 C   0  0  0  0  0  0  0  0  0  0  0  0
   -2.0253    3.1438    0.1402 C   0  0  0  0  0  0  0  0  0  0  0  0
    3.4400    0.1744    1.4079 C   0  0  0  0  0  0  0  0  0  0  0  0
    4.2977    1.1805    2.1028 C   0  0  0  0  0  0  0  0  0  0  0  0
  1 20  1  0
  2 11  1  0
  2 14  1  0
  3 15  2  0
  4 21  2  0
  5  9  1  0
  5 10  1  0
  5 11  1  0
  6 11  2  0
  6 13  1  0
  7  8  1  0
  7 15  1  0
  8 21  1  0
  9 12  1  0
  9 13  2  0
 10 14  2  0
 10 15  1  0
 12 16  2  0
 12 17  1  0
 16 18  1  0
 17 19  2  0
 18 20  2  0
 19 20  1  0
 21 22  1  0
M  END
>  <PUBCHEM_COMPOUND_CID>  (24) 
165412706

>  <PUBCHEM_COMPOUND_CANONICALIZED>  (24) 
1

>  <PUBCHEM_CACTVS_COMPLEXITY>  (24) 
445

>  <PUBCHEM_CACTVS_HBOND_ACCEPTOR>  (24) 
4

>  <PUBCHEM_CACTVS_HBOND_DONOR>  (24) 
2

>  <PUBCHEM_CACTVS_ROTATABLE_BOND>  (24) 
2

>  <PUBCHEM_CACTVS_SUBSKEYS>  (24) 
AAADccBzsABAEAAAAAAAAAAAAAAAAWLAAAAwAAAAAAAWAAAB8AAAHgRYAAABrAjF3gS/kZduGAisAzV3dACC8K13Gr4b+DW4dPiIaOLgmTGUIAhokALIyrcQgIAOAgAAAAAAAAAEAAAAAAAAAAAAAAAAAA==

>  <PUBCHEM_IUPAC_OPENEYE_NAME>  (24) 
N'-acetyl-5-(4-bromophenyl)imidazo[2,1-b]thiazole-3-carbohydrazide

>  <PUBCHEM_IUPAC_CAS_NAME>  (24) 
N'-acetyl-5-(4-bromophenyl)-3-imidazo[2,1-b]thiazolecarbohydrazide

>  <PUBCHEM_IUPAC_NAME_MARKUP>  (24) 
<I>N</I>&apos;-acetyl-5-(4-bromophenyl)imidazo[2,1-b][1,3]thiazole-3-carbohydrazide

>  <PUBCHEM_IUPAC_NAME>  (24) 
N'-acetyl-5-(4-bromophenyl)imidazo[2,1-b][1,3]thiazole-3-carbohydrazide

>  <PUBCHEM_IUPAC_SYSTEMATIC_NAME>  (24) 
5-(4-bromophenyl)-N'-ethanoyl-imidazo[2,1-b][1,3]thiazole-3-carbohydrazide

>  <PUBCHEM_IUPAC_TRADITIONAL_NAME>  (24) 
N'-acetyl-5-(4-bromophenyl)imidazo[2,1-b]thiazole-3-carbohydrazide

>  <PUBCHEM_IUPAC_INCHI>  (24) 
InChI=1S/C14H11BrN4O2S/c1-8(20)17-18-13(21)12-7-22-14-16-6-11(19(12)14)9-2-4-10(15)5-3-9/h2-7H,1H3,(H,17,20)(H,18,21)

>  <PUBCHEM_IUPAC_INCHIKEY>  (24) 
OJCVSCAUEKBQAE-UHFFFAOYSA-N

>  <PUBCHEM_XLOGP3_AA>  (24) 
3.3

>  <PUBCHEM_EXACT_MASS>  (24) 
377.97861

>  <PUBCHEM_MOLECULAR_FORMULA>  (24) 
C14H11BrN4O2S

>  <PUBCHEM_MOLECULAR_WEIGHT>  (24) 
379.23

>  <PUBCHEM_CACTVS_TPSA>  (24) 
104

>  <PUBCHEM_MONOISOTOPIC_WEIGHT>  (24) 
377.97861

>  <PUBCHEM_TOTAL_CHARGE>  (24) 
0

>  <PUBCHEM_HEAVY_ATOM_COUNT>  (24) 
22

>  <PUBCHEM_ATOM_DEF_STEREO_COUNT>  (24) 
0

>  <PUBCHEM_ATOM_UDEF_STEREO_COUNT>  (24) 
0

>  <PUBCHEM_BOND_DEF_STEREO_COUNT>  (24) 
0

>  <PUBCHEM_BOND_UDEF_STEREO_COUNT>  (24) 
0

>  <PUBCHEM_ISOTOPIC_ATOM_COUNT>  (24) 
0

>  <PUBCHEM_COMPONENT_COUNT>  (24) 
1

>  <PUBCHEM_CACTVS_TAUTO_COUNT>  (24) 
-1

>  <PUBCHEM_COORDINATE_TYPE>  (24) 
1
5
255

>  <PUBCHEM_BONDANNOTATIONS>  (24) 
10  14  8
12  16  8
12  17  8
16  18  8
17  19  8
18  20  8
19  20  8
2  11  8
2  14  8
5  10  8
5  11  8
5  9  8
6  11  8
6  13  8
9  13  8

$$$$
decoy_25
     RDKit          3D

 36 40  0  0  0  0  0  0  0  0999 V2000
    4.2139   -0.7184   -2.5637 O   0  0  0  0  0  0  0  0  0  0  0  0
    6.0342   -0.7006    1.9332 O   0  0  0  0  0  0  0  0  0  0  0  0
    6.3737   -0.7193   -0.9302 O   0  0  0  0  0  0  0  0  0  0  0  0
   -4.3178    1.4748    0.2408 N   0  0  0  0  0  0  0  0  0  0  0  0
   -3.7714    1.3157   -0.9514 N   0  0  0  0  0  0  0  0  0  0  0  0
   -1.3904   -0.7923    2.4562 N   0  0  0  0  0  0  0  0  0  0  0  0
    0.8990   -1.3363    2.5419 N   0  0  0  0  0  0  0  0  0  0  0  0
   -0.5204   -1.9581    4.3823 N   0  0  0  0  0  0  0  0  0  0  0  0
   -2.3956    0.4265    0.5711 C   0  0  0  0  0  0  0  0  0  0  0  0
   -2.5943    0.6858   -0.7774 C   0  0  0  0  0  0  0  0  0  0  0  0
   -1.2340   -0.2015    1.2413 C   0  0  0  0  0  0  0  0  0  0  0  0
   -3.5179    0.9398    1.1888 C   0  0  0  0  0  0  0  0  0  0  0  0
   -1.8123    0.1472   -1.9029 C   0  0  0  0  0  0  0  0  0  0  0  0
    1.1179   -0.7559    1.3326 C   0  0  0  0  0  0  0  0  0  0  0  0
    0.0426   -0.1483    0.6679 C   0  0  0  0  0  0  0  0  0  0  0  0
    2.4892   -0.7554    0.7556 C   0  0  0  0  0  0  0  0  0  0  0  0
   -5.6281    2.0327    0.4490 C   0  0  0  0  0  0  0  0  0  0  0  0
    3.6088   -0.7759    1.5996 C   0  0  0  0  0  0  0  0  0  0  0  0
    2.6889   -0.7457   -0.6345 C   0  0  0  0  0  0  0  0  0  0  0  0
   -1.7487   -1.2450   -2.0949 C   0  0  0  0  0  0  0  0  0  0  0  0
   -1.1522    1.0155   -2.7991 C   0  0  0  0  0  0  0  0  0  0  0  0
    3.9879   -0.7275   -1.1746 C   0  0  0  0  0  0  0  0  0  0  0  0
    4.9173   -0.7482    1.0806 C   0  0  0  0  0  0  0  0  0  0  0  0
    5.1036   -0.7365   -0.3214 C   0  0  0  0  0  0  0  0  0  0  0  0
   -0.3364   -1.3551    3.1064 C   0  0  0  0  0  0  0  0  0  0  0  0
   -6.6104    1.9227   -0.5525 C   0  0  0  0  0  0  0  0  0  0  0  0
   -5.9422    2.7039    1.6463 C   0  0  0  0  0  0  0  0  0  0  0  0
   -1.0257   -1.7737   -3.1656 C   0  0  0  0  0  0  0  0  0  0  0  0
   -0.4132    0.4808   -3.8568 C   0  0  0  0  0  0  0  0  0  0  0  0
   -7.8970    2.4394   -0.3514 C   0  0  0  0  0  0  0  0  0  0  0  0
   -7.2222    3.2442    1.8305 C   0  0  0  0  0  0  0  0  0  0  0  0
   -0.3576   -0.9100   -4.0490 C   0  0  0  0  0  0  0  0  0  0  0  0
   -8.1965    3.1087    0.8431 C   0  0  0  0  0  0  0  0  0  0  0  0
    3.1829   -0.7386   -3.5473 C   0  0  0  0  0  0  0  0  0  0  0  0
    5.9823   -0.6600    3.3578 C   0  0  0  0  0  0  0  0  0  0  0  0
    7.5592   -1.3088   -0.3854 C   0  0  0  0  0  0  0  0  0  0  0  0
  1 22  1  0
  1 34  1  0
  2 23  1  0
  2 35  1  0
  3 24  1  0
  3 36  1  0
  4  5  1  0
  4 12  1  0
  4 17  1  0
  5 10  2  0
  6 11  2  0
  6 25  1  0
  7 14  1  0
  7 25  2  0
  8 25  1  0
  9 10  1  0
  9 11  1  0
  9 12  2  0
 10 13  1  0
 11 15  1  0
 13 20  2  0
 13 21  1  0
 14 15  2  0
 14 16  1  0
 16 18  2  0
 16 19  1  0
 17 26  2  0
 17 27  1  0
 18 23  1  0
 19 22  2  0
 20 28  1  0
 21 29  2  0
 22 24  1  0
 23 24  2  0
 26 30  1  0
 27 31  2  0
 28 32  2  0
 29 32  1  0
 30 33  2  0
 31 33  1  0
M  END
>  <PUBCHEM_COMPOUND_CID>  (25) 
169450430

>  <PUBCHEM_COMPOUND_CANONICALIZED>  (25) 
1

>  <PUBCHEM_CACTVS_COMPLEXITY>  (25) 
660

>  <PUBCHEM_CACTVS_HBOND_ACCEPTOR>  (25) 
7

>  <PUBCHEM_CACTVS_HBOND_DONOR>  (25) 
1

>  <PUBCHEM_CACTVS_ROTATABLE_BOND>  (25) 
7

>  <PUBCHEM_CACTVS_SUBSKEYS>  (25) 
AAADceB7sAAAAAAAAAAAAAAAAAAAAWAAAAA8YMEAAAAAAAAB9AAAHgAYAAAADAzBngY/1pZIFACiAzRnZACSjCkxoqAZmCA+7JiNL+LE+duEtCptyBfK6Cew8P8OIAABCAAAQABAAAIQAACAAAAAAAAAAA==

>  <PUBCHEM_IUPAC_OPENEYE_NAME>  (25) 
4-(1,3-diphenylpyrazol-4-yl)-6-(3,4,5-trimethoxyphenyl)pyrimidin-2-amine

>  <PUBCHEM_IUPAC_CAS_NAME>  (25) 
4-(1,3-diphenyl-4-pyrazolyl)-6-(3,4,5-trimethoxyphenyl)-2-pyrimidinamine

>  <PUBCHEM_IUPAC_NAME_MARKUP>  (25) 
4-(1,3-diphenylpyrazol-4-yl)-6-(3,4,5-trimethoxyphenyl)pyrimidin-2-amine

>  <PUBCHEM_IUPAC_NAME>  (25) 
4-(1,3-diphenylpyrazol-4-yl)-6-(3,4,5-trimethoxyphenyl)pyrimidin-2-amine

>  <PUBCHEM_IUPAC_SYSTEMATIC_NAME>  (25) 
4-(1,3-diphenylpyrazol-4-yl)-6-(3,4,5-trimethoxyphenyl)pyrimidin-2-amine

>  <PUBCHEM_IUPAC_TRADITIONAL_NAME>  (25) 
[4-(1,3-diphenylpyrazol-4-yl)-6-(3,4,5-trimethoxyphenyl)pyrimidin-2-yl]amine

>  <PUBCHEM_IUPAC_INCHI>  (25) 
InChI=1S/C28H25N5O3/c1-34-24-14-19(15-25(35-2)27(24)36-3)22-16-23(31-28(29)30-22)21-17-33(20-12-8-5-9-13-20)32-26(21)18-10-6-4-7-11-18/h4-17H,1-3H3,(H2,29,30,31)

>  <PUBCHEM_IUPAC_INCHIKEY>  (25) 
MEMCKFAZJRMZAC-UHFFFAOYSA-N

>  <PUBCHEM_XLOGP3_AA>  (25) 
4.7

>  <PUBCHEM_EXACT_MASS>  (25) 
479.19573968

>  <PUBCHEM_MOLECULAR_FORMULA>  (25) 
C28H25N5O3

>  <PUBCHEM_MOLECULAR_WEIGHT>  (25) 
479.5

>  <PUBCHEM_CACTVS_TPSA>  (25) 
97.3

>  <PUBCHEM_MONOISOTOPIC_WEIGHT>  (25) 
479.19573968

>  <PUBCHEM_TOTAL_CHARGE>  (25) 
0

>  <PUBCHEM_HEAVY_ATOM_COUNT>  (25) 
36

>  <PUBCHEM_ATOM_DEF_STEREO_COUNT>  (25) 
0

>  <PUBCHEM_ATOM_UDEF_STEREO_COUNT>  (25) 
0

>  <PUBCHEM_BOND_DEF_STEREO_COUNT>  (25) 
0

>  <PUBCHEM_BOND_UDEF_STEREO_COUNT>  (25) 
0

>  <PUBCHEM_ISOTOPIC_ATOM_COUNT>  (25) 
0

>  <PUBCHEM_COMPONENT_COUNT>  (25) 
1

>  <PUBCHEM_CACTVS_TAUTO_COUNT>  (25) 
-1

>  <PUBCHEM_COORDINATE_TYPE>  (25) 
1
5
255

>  <PUBCHEM_BONDANNOTATIONS>  (25) 
11  15  8
13  20  8
13  21  8
14  15  8
16  18  8
16  19  8
17  26  8
17  27  8
18  23  8
19  22  8
20  28  8
21  29  8
22  24  8
23  24  8
26  30  8
27  31  8
28  32  8
29  32  8
30  33  8
31  33  8
4  12  8
4  5  8
5  10  8
6  11  8
6  25  8
7  14  8
7  25  8
9  10  8
9  12  8

$$$$
decoy_26
     RDKit          3D

 26 29  0  0  0  0  0  0  0  0999 V2000
   -0.4009   -4.2759   -1.4151 S   0  0  0  0  0  0  0  0  0  0  0  0
    4.7960    1.0322    0.8719 O   0  0  0  0  0  0  0  0  0  0  0  0
   -3.1590   -1.4618    1.3992 O   0  0  0  0  0  0  0  0  0  0  0  0
    3.2670   -0.1413   -1.0031 N   0  0  0  0  0  0  0  0  0  0  0  0
   -0.8620   -2.0583   -0.3343 N   0  0  0  0  0  0  0  0  0  0  0  0
    1.3112   -2.1738   -0.9187 N   0  0  0  0  0  0  0  0  0  0  0  0
   -4.5775   -2.4553   -0.1602 N   0  0  0  0  0  0  0  0  0  0  0  0
   -5.7300   -1.9881    0.4942 N   0  0  0  0  0  0  0  0  0  0  0  0
    2.0513    0.1399   -0.2037 C   0  0  0  0  0  0  0  0  0  0  0  0
    4.2223   -1.0234   -0.2860 C   0  0  0  0  0  0  0  0  0  0  0  0
    3.9299    1.0996   -1.4501 C   0  0  0  0  0  0  0  0  0  0  0  0
    1.0378   -0.9608   -0.3587 C   0  0  0  0  0  0  0  0  0  0  0  0
   -0.3119   -0.8800    0.0044 C   0  0  0  0  0  0  0  0  0  0  0  0
    5.2972   -0.2293    0.4839 C   0  0  0  0  0  0  0  0  0  0  0  0
    4.5945    1.8492   -0.2691 C   0  0  0  0  0  0  0  0  0  0  0  0
    0.1096   -2.7765   -0.8708 C   0  0  0  0  0  0  0  0  0  0  0  0
   -1.0318    0.3244    0.4568 C   0  0  0  0  0  0  0  0  0  0  0  0
   -2.0670   -2.6863   -0.3080 C   0  0  0  0  0  0  0  0  0  0  0  0
   -2.0025   -3.9627   -0.8972 C   0  0  0  0  0  0  0  0  0  0  0  0
   -2.1068    0.8248   -0.2928 C   0  0  0  0  0  0  0  0  0  0  0  0
   -0.6236    1.0007    1.6156 C   0  0  0  0  0  0  0  0  0  0  0  0
   -3.2736   -2.1576    0.3555 C   0  0  0  0  0  0  0  0  0  0  0  0
   -2.7732    1.9827    0.1178 C   0  0  0  0  0  0  0  0  0  0  0  0
   -1.2905    2.1585    2.0269 C   0  0  0  0  0  0  0  0  0  0  0  0
   -2.3613    2.6638    1.2731 C   0  0  0  0  0  0  0  0  0  0  0  0
   -3.1010    3.8885    1.7239 C   0  0  0  0  0  0  0  0  0  0  0  0
  1 16  1  0
  1 19  1  0
  2 14  1  0
  2 15  1  0
  3 22  2  0
  4  9  1  0
  4 10  1  0
  4 11  1  0
  5 13  1  0
  5 16  1  0
  5 18  1  0
  6 12  1  0
  6 16  2  0
  7  8  1  0
  7 22  1  0
  9 12  1  0
 10 14  1  0
 11 15  1  0
 12 13  2  0
 13 17  1  0
 17 20  2  0
 17 21  1  0
 18 19  2  0
 18 22  1  0
 20 23  1  0
 21 24  2  0
 23 25  2  0
 24 25  1  0
 25 26  1  0
M  END
>  <PUBCHEM_COMPOUND_CID>  (26) 
165412710

>  <PUBCHEM_COMPOUND_CANONICALIZED>  (26) 
1

>  <PUBCHEM_CACTVS_COMPLEXITY>  (26) 
496

>  <PUBCHEM_CACTVS_HBOND_ACCEPTOR>  (26) 
6

>  <PUBCHEM_CACTVS_HBOND_DONOR>  (26) 
2

>  <PUBCHEM_CACTVS_ROTATABLE_BOND>  (26) 
4

>  <PUBCHEM_CACTVS_SUBSKEYS>  (26) 
AAADceB7sABAAAAAAAAAAAAAAAAAAWLAAAA8QAAAAAAWAAAB8AAAHgQYAAAADAjl3gazkZduHAisAyVydACC8K1nGrobuDW4dNiKaOLg2TGXIAhogALYyKcQgMAOQAAAAAAAAACAAAAAAAAAAAAAAAAAAA==

>  <PUBCHEM_IUPAC_OPENEYE_NAME>  (26) 
6-(morpholinomethyl)-5-(p-tolyl)imidazo[2,1-b]thiazole-3-carbohydrazide

>  <PUBCHEM_IUPAC_CAS_NAME>  (26) 
5-(4-methylphenyl)-6-(4-morpholinylmethyl)-3-imidazo[2,1-b]thiazolecarbohydrazide

>  <PUBCHEM_IUPAC_NAME_MARKUP>  (26) 
5-(4-methylphenyl)-6-(morpholin-4-ylmethyl)imidazo[2,1-b][1,3]thiazole-3-carbohydrazide

>  <PUBCHEM_IUPAC_NAME>  (26) 
5-(4-methylphenyl)-6-(morpholin-4-ylmethyl)imidazo[2,1-b][1,3]thiazole-3-carbohydrazide

>  <PUBCHEM_IUPAC_SYSTEMATIC_NAME>  (26) 
5-(4-methylphenyl)-6-(morpholin-4-ylmethyl)imidazo[2,1-b][1,3]thiazole-3-carbohydrazide

>  <PUBCHEM_IUPAC_TRADITIONAL_NAME>  (26) 
6-(morpholinomethyl)-5-(p-tolyl)imidazo[2,1-b]thiazole-3-carbohydrazide

>  <PUBCHEM_IUPAC_INCHI>  (26) 
InChI=1S/C18H21N5O2S/c1-12-2-4-13(5-3-12)16-14(10-22-6-8-25-9-7-22)20-18-23(16)15(11-26-18)17(24)21-19/h2-5,11H,6-10,19H2,1H3,(H,21,24)

>  <PUBCHEM_IUPAC_INCHIKEY>  (26) 
MSIRVCGEZTUEOG-UHFFFAOYSA-N

>  <PUBCHEM_XLOGP3_AA>  (26) 
2.3

>  <PUBCHEM_EXACT_MASS>  (26) 
371.14159610

>  <PUBCHEM_MOLECULAR_FORMULA>  (26) 
C18H21N5O2S

>  <PUBCHEM_MOLECULAR_WEIGHT>  (26) 
371.5

>  <PUBCHEM_CACTVS_TPSA>  (26) 
113

>  <PUBCHEM_MONOISOTOPIC_WEIGHT>  (26) 
371.14159610

>  <PUBCHEM_TOTAL_CHARGE>  (26) 
0

>  <PUBCHEM_HEAVY_ATOM_COUNT>  (26) 
26

>  <PUBCHEM_ATOM_DEF_STEREO_COUNT>  (26) 
0

>  <PUBCHEM_ATOM_UDEF_STEREO_COUNT>  (26) 
0

>  <PUBCHEM_BOND_DEF_STEREO_COUNT>  (26) 
0

>  <PUBCHEM_BOND_UDEF_STEREO_COUNT>  (26) 
0

>  <PUBCHEM_ISOTOPIC_ATOM_COUNT>  (26) 
0

>  <PUBCHEM_COMPONENT_COUNT>  (26) 
1

>  <PUBCHEM_CACTVS_TAUTO_COUNT>  (26) 
-1

>  <PUBCHEM_COORDINATE_TYPE>  (26) 
1
5
255

>  <PUBCHEM_BONDANNOTATIONS>  (26) 
1  16  8
1  19  8
12  13  8
17  20  8
17  21  8
18  19  8
20  23  8
21  24  8
23  25  8
24  25  8
5  13  8
5  16  8
5  18  8
6  12  8
6  16  8

$$$$
